version 2
run General-0-20220311-11:00:33-8080
attr configname General
attr datetime 20220311-11:00:33
attr experiment General
attr inifile network2.ini
attr iterationvars ""
attr iterationvarsf ""
attr measurement ""
attr network Network2
attr processid 8080
attr repetition 0
attr replication #0
attr resultdir results
attr runnumber 0
attr seedset 0
param *.configurator.config "xmldoc(\"step10a.xml\")"
param *.*.wlan[*].radio.transmitter.power 1mW
param *.visualizer.routingTableVisualizer.displayRoutingTables true
param *.visualizer.routingTableVisualizer.labelFormat "\"\""
param *.visualizer.routingTableVisualizer.lineShiftMode "\"none\""
param *.visualizer.routingTableVisualizer.destinationFilter "\"*\""
param *.visualizer.mediumVisualizer.displayCommunicationRanges true
param *.configurator.addStaticRoutes false
param *.host1.numApps 1
param *.host1.app[0].typename "\"EdgeApp\""
param *.host1.app[0].destAddresses "\"host3\""
param *.host1.app[0].destPort 5000
param *.host1.app[0].messageLength 1000B
param *.host1.app[0].sendInterval exponential(12ms)
param *.host1.app[0].packetName "\"UDPData\""
param *.host2.numApps 1
param *.host2.app[0].typename "\"RSUApp\""
param *.host2.app[0].destAddresses "\"host1\""
param *.host2.app[0].destPort 5000
param *.host2.app[0].messageLength 1000B
param *.host2.app[0].sendInterval exponential(12ms)
param *.host2.app[0].packetName "\"UDPData\""
param *.host3.numApps 1
param *.host3.app[0].typename "\"VehicleApp\""
param *.host3.app[0].destAddresses "\"host2\""
param *.host3.app[0].destPort 5000
param *.host3.app[0].messageLength 1000B
param *.host3.app[0].sendInterval exponential(12ms)
param *.host3.app[0].packetName "\"UDPData\""

vector 0 Network2.host1.wlan[0].radio radioMode:vector ETV
attr interpolationmode sample-hold
attr source radioModeChanged
attr title "Radio mode, vector"
vector 1 Network2.host1.wlan[0].radio radioChannel:vector ETV
attr interpolationmode sample-hold
attr source radioChannelChanged
attr title "Radio channel, vector"
vector 2 Network2.host2.wlan[0].radio radioMode:vector ETV
attr interpolationmode sample-hold
attr source radioModeChanged
attr title "Radio mode, vector"
vector 3 Network2.host2.wlan[0].radio radioChannel:vector ETV
attr interpolationmode sample-hold
attr source radioChannelChanged
attr title "Radio channel, vector"
vector 4 Network2.host3.wlan[0].radio radioMode:vector ETV
attr interpolationmode sample-hold
attr source radioModeChanged
attr title "Radio mode, vector"
vector 5 Network2.host3.wlan[0].radio radioChannel:vector ETV
attr interpolationmode sample-hold
attr source radioChannelChanged
attr title "Radio channel, vector"
vector 6 Network2.host4.wlan[0].radio radioMode:vector ETV
attr interpolationmode sample-hold
attr source radioModeChanged
attr title "Radio mode, vector"
vector 7 Network2.host4.wlan[0].radio radioChannel:vector ETV
attr interpolationmode sample-hold
attr source radioChannelChanged
attr title "Radio channel, vector"
vector 8 Network2.host1.wlan[0].radio receptionState:vector ETV
attr interpolationmode sample-hold
attr source receptionStateChanged
attr title "Radio reception state, vector"
vector 9 Network2.host2.wlan[0].radio receptionState:vector ETV
attr interpolationmode sample-hold
attr source receptionStateChanged
attr title "Radio reception state, vector"
vector 10 Network2.host3.wlan[0].radio receptionState:vector ETV
attr interpolationmode sample-hold
attr source receptionStateChanged
attr title "Radio reception state, vector"
vector 11 Network2.host4.wlan[0].radio receptionState:vector ETV
attr interpolationmode sample-hold
attr source receptionStateChanged
attr title "Radio reception state, vector"
vector 12 Network2.host1.wlan[0].mac.dcf.recoveryProcedure contentionWindowChanged:vector ETV
attr interpolationmode sample-hold
attr title "contention window, vector"
vector 13 Network2.host2.wlan[0].mac.dcf.recoveryProcedure contentionWindowChanged:vector ETV
attr interpolationmode sample-hold
attr title "contention window, vector"
vector 14 Network2.host3.wlan[0].mac.dcf.recoveryProcedure contentionWindowChanged:vector ETV
attr interpolationmode sample-hold
attr title "contention window, vector"
vector 15 Network2.host4.wlan[0].mac.dcf.recoveryProcedure contentionWindowChanged:vector ETV
attr interpolationmode sample-hold
attr title "contention window, vector"
vector 16 Network2.host3.app[0] packetSent:vector(packetBytes) ETV
attr interpolationmode none
attr source packetSent
attr title "packets sent, vector(packetBytes)"
vector 17 Network2.host3.udp packetSent:vector(packetBytes) ETV
attr interpolationmode none
attr source packetSent
attr title "packets sent, vector(packetBytes)"
vector 18 Network2.host3.wlan[0].mac packetReceivedFromUpper:vector(packetBytes) ETV
attr interpolationmode none
attr title "packets received from upper layer, vector(packetBytes)"
vector 19 Network2.host3.wlan[0].mac.dcf.channelAccess.pendingQueue packetPushed:vector(packetBytes) ETV
attr interpolationmode none
attr title "packet pushed, vector(packetBytes)"
vector 20 Network2.host3.wlan[0].mac.dcf.channelAccess.pendingQueue queueLength:vector ETV
attr interpolationmode sample-hold
attr source "count(packetPushed) - count(packetPopped) - count(packetRemoved) - count(packetDropped)"
attr title "queue length, vector"
vector 21 Network2.host3.wlan[0].mac.dcf.channelAccess.contention backoffPeriodGenerated:vector ETV
attr interpolationmode none
attr title "backoff periods, vector"
vector 22 Network2.host3.wlan[0].mac.dcf.channelAccess.contention backoffActive:vector ETV
attr interpolationmode sample-hold
attr source count(backoffStarted)-count(backoffStopped)
attr title "backoff active, vector"
vector 23 Network2.host3.wlan[0].mac.dcf.channelAccess.pendingQueue packetPopped:vector(packetBytes) ETV
attr interpolationmode none
attr title "packet popped, vector(packetBytes)"
vector 24 Network2.host3.wlan[0].mac.dcf.channelAccess.pendingQueue queueingTime:vector ETV
attr interpolationmode none
attr source queueingTime(packetPopped)
attr title "queueing times, vector"
attr unit s
vector 25 Network2.host3.wlan[0].mac.dcf.channelAccess.inProgressFrames queueLength:vector ETV
attr interpolationmode sample-hold
attr source "count(packetEnqueued) - count(packetDequeued)"
attr title "queue length, vector"
vector 26 Network2.host3.wlan[0].mac.dcf datarateSelected:vector ETV
attr interpolationmode none
attr title "datarates selected, vector"
vector 27 Network2.host3.wlan[0].mac packetSentToLower:vector(packetBytes) ETV
attr interpolationmode none
attr title "packets sent to lower layer, vector(packetBytes)"
vector 28 Network2.host3.wlan[0].mac.dcf frameSequenceActive:vector ETV
attr interpolationmode sample-hold
attr source count(frameSequenceStarted)-count(frameSequenceFinished)
attr title "frame sequence active, vector"
vector 29 Network2.host3.wlan[0].radio transmissionState:vector ETV
attr interpolationmode sample-hold
attr source transmissionStateChanged
attr title "Radio transmission state, vector"
vector 30 Network2.host3.wlan[0].mac.dcf packetSentToPeer:vector(packetBytes) ETV
attr interpolationmode none
attr title "packets sent, vector(packetBytes)"
vector 31 Network2.host3.wlan[0].mac.dcf packetSentToPeerMulticast:vector(packetBytes) ETV
attr interpolationmode none
attr source ieee80211Multicast(packetSentToPeer)
attr title "packets sent: multicast, vector(packetBytes)"
vector 32 Network2.host3.wlan[0].mac.dcf packetSentToPeerBroadcast:vector(packetBytes) ETV
attr interpolationmode none
attr source ieee80211Broadcast(packetSentToPeer)
attr title "packets sent: broadcast , vector(packetBytes)"
vector 33 Network2.host3.wlan[0].mac.dcf packetSentToPeerWithoutRetry:vector(packetBytes) ETV
attr interpolationmode none
attr source ieee80211NotRetry(packetSentToPeer)
attr title "packets sent: without retry, vector(packetBytes)"
vector 34 Network2.host3.wlan[0].mac.dcf.channelAccess.inProgressFrames queueingTime:vector ETV
attr interpolationmode none
attr source queueingTime(packetDequeued)
attr title "queueing times, vector"
vector 35 Network2.host2.wlan[0].mac packetReceivedFromLower:vector(packetBytes) ETV
attr interpolationmode none
attr title "packets received from lower layer, vector(packetBytes)"
vector 36 Network2.host2.wlan[0].mac.dcf packetReceivedFromPeer:vector(packetBytes) ETV
attr interpolationmode none
attr title "packets received, vector(packetBytes)"
vector 37 Network2.host2.wlan[0].mac.dcf packetReceivedFromPeerMulticast:vector(packetBytes) ETV
attr interpolationmode none
attr source ieee80211Multicast(packetReceivedFromPeer)
attr title "packets received: multicast, vector(packetBytes)"
vector 38 Network2.host2.wlan[0].mac.dcf packetReceivedFromPeerBroadcast:vector(packetBytes) ETV
attr interpolationmode none
attr source ieee80211Broadcast(packetReceivedFromPeer)
attr title "packets received: broadcast, vector(packetBytes)"
vector 39 Network2.host2.wlan[0].mac.dcf packetReceivedFromPeerWithoutRetry:vector(packetBytes) ETV
attr interpolationmode none
attr source ieee80211NotRetry(packetReceivedFromPeer)
attr title "packets received: without retry, vector(packetBytes)"
vector 40 Network2.host2.wlan[0].mac packetSentToUpper:vector(packetBytes) ETV
attr interpolationmode none
attr title "packets sent to upper layer, vector(packetBytes)"
vector 41 Network2.host2.udp packetReceived:vector(packetBytes) ETV
attr interpolationmode none
attr source packetReceived
attr title "packets received, vector(packetBytes)"
vector 42 Network2.host2.udp passedUpPk:vector(count) ETV
attr interpolationmode none
attr source packetSentToUpper
attr title "packets passed up, vector(count)"
vector 43 Network2.host2.udp packetSent:vector(packetBytes) ETV
attr interpolationmode none
attr source packetSent
attr title "packets sent, vector(packetBytes)"
vector 44 Network2.host2.ipv4.arp arpRequestSent:vector(packetBytes) ETV
attr source arpRequestSent
attr title "ARP request sent, vector(packetBytes)"
vector 45 Network2.host2.wlan[0].mac packetReceivedFromUpper:vector(packetBytes) ETV
attr interpolationmode none
attr title "packets received from upper layer, vector(packetBytes)"
vector 46 Network2.host2.wlan[0].mac.dcf.channelAccess.pendingQueue packetPushed:vector(packetBytes) ETV
attr interpolationmode none
attr title "packet pushed, vector(packetBytes)"
vector 47 Network2.host2.wlan[0].mac.dcf.channelAccess.pendingQueue queueLength:vector ETV
attr interpolationmode sample-hold
attr source "count(packetPushed) - count(packetPopped) - count(packetRemoved) - count(packetDropped)"
attr title "queue length, vector"
vector 48 Network2.host2.wlan[0].mac.dcf.channelAccess.contention backoffPeriodGenerated:vector ETV
attr interpolationmode none
attr title "backoff periods, vector"
vector 49 Network2.host2.wlan[0].mac.dcf.channelAccess.contention backoffActive:vector ETV
attr interpolationmode sample-hold
attr source count(backoffStarted)-count(backoffStopped)
attr title "backoff active, vector"
vector 50 Network2.host2.wlan[0].mac.dcf.channelAccess.pendingQueue packetPopped:vector(packetBytes) ETV
attr interpolationmode none
attr title "packet popped, vector(packetBytes)"
vector 51 Network2.host2.wlan[0].mac.dcf.channelAccess.pendingQueue queueingTime:vector ETV
attr interpolationmode none
attr source queueingTime(packetPopped)
attr title "queueing times, vector"
attr unit s
vector 52 Network2.host2.wlan[0].mac.dcf.channelAccess.inProgressFrames queueLength:vector ETV
attr interpolationmode sample-hold
attr source "count(packetEnqueued) - count(packetDequeued)"
attr title "queue length, vector"
vector 53 Network2.host2.wlan[0].mac.dcf datarateSelected:vector ETV
attr interpolationmode none
attr title "datarates selected, vector"
vector 54 Network2.host2.wlan[0].mac packetSentToLower:vector(packetBytes) ETV
attr interpolationmode none
attr title "packets sent to lower layer, vector(packetBytes)"
vector 55 Network2.host2.wlan[0].mac.dcf frameSequenceActive:vector ETV
attr interpolationmode sample-hold
attr source count(frameSequenceStarted)-count(frameSequenceFinished)
attr title "frame sequence active, vector"
vector 56 Network2.host2.wlan[0].radio transmissionState:vector ETV
attr interpolationmode sample-hold
attr source transmissionStateChanged
attr title "Radio transmission state, vector"
vector 57 Network2.host2.wlan[0].mac.dcf packetSentToPeer:vector(packetBytes) ETV
attr interpolationmode none
attr title "packets sent, vector(packetBytes)"
vector 58 Network2.host2.wlan[0].mac.dcf packetSentToPeerMulticast:vector(packetBytes) ETV
attr interpolationmode none
attr source ieee80211Multicast(packetSentToPeer)
attr title "packets sent: multicast, vector(packetBytes)"
vector 59 Network2.host2.wlan[0].mac.dcf packetSentToPeerBroadcast:vector(packetBytes) ETV
attr interpolationmode none
attr source ieee80211Broadcast(packetSentToPeer)
attr title "packets sent: broadcast , vector(packetBytes)"
vector 60 Network2.host2.wlan[0].mac.dcf packetSentToPeerWithoutRetry:vector(packetBytes) ETV
attr interpolationmode none
attr source ieee80211NotRetry(packetSentToPeer)
attr title "packets sent: without retry, vector(packetBytes)"
vector 61 Network2.host2.wlan[0].mac.dcf.channelAccess.inProgressFrames queueingTime:vector ETV
attr interpolationmode none
attr source queueingTime(packetDequeued)
attr title "queueing times, vector"
vector 62 Network2.host3.wlan[0].mac packetReceivedFromLower:vector(packetBytes) ETV
attr interpolationmode none
attr title "packets received from lower layer, vector(packetBytes)"
vector 63 Network2.host3.wlan[0].mac.dcf packetReceivedFromPeer:vector(packetBytes) ETV
attr interpolationmode none
attr title "packets received, vector(packetBytes)"
vector 64 Network2.host3.wlan[0].mac.dcf packetReceivedFromPeerMulticast:vector(packetBytes) ETV
attr interpolationmode none
attr source ieee80211Multicast(packetReceivedFromPeer)
attr title "packets received: multicast, vector(packetBytes)"
vector 65 Network2.host3.wlan[0].mac.dcf packetReceivedFromPeerBroadcast:vector(packetBytes) ETV
attr interpolationmode none
attr source ieee80211Broadcast(packetReceivedFromPeer)
attr title "packets received: broadcast, vector(packetBytes)"
vector 66 Network2.host3.wlan[0].mac.dcf packetReceivedFromPeerWithoutRetry:vector(packetBytes) ETV
attr interpolationmode none
attr source ieee80211NotRetry(packetReceivedFromPeer)
attr title "packets received: without retry, vector(packetBytes)"
vector 67 Network2.host3.wlan[0].mac packetSentToUpper:vector(packetBytes) ETV
attr interpolationmode none
attr title "packets sent to upper layer, vector(packetBytes)"
vector 68 Network2.host3.ipv4.arp arpReplySent:vector(packetBytes) ETV
attr source arpReplySent
attr title "ARP replies sent, vector(packetBytes)"
vector 69 Network2.host3.wlan[0].mac.dcf packetSentToPeerUnicast:vector(packetBytes) ETV
attr interpolationmode none
attr source ieee80211Unicast(packetSentToPeer)
attr title "packets sent: unicast, vector(packetBytes)"
vector 70 Network2.host3.wlan[0].mac.rx nav:vector ETV
attr interpolationmode linear
attr source navChanged
attr title "network allocation vector, vector"
vector 71 Network2.host2.wlan[0].mac.dcf packetReceivedFromPeerUnicast:vector(packetBytes) ETV
attr interpolationmode none
attr source ieee80211Unicast(packetReceivedFromPeer)
attr title "packets received: unicast, vector(packetBytes)"
vector 72 Network2.host2.wlan[0].mac.dcf packetSentToPeerUnicast:vector(packetBytes) ETV
attr interpolationmode none
attr source ieee80211Unicast(packetSentToPeer)
attr title "packets sent: unicast, vector(packetBytes)"
vector 73 Network2.host3.wlan[0].mac.dcf packetReceivedFromPeerUnicast:vector(packetBytes) ETV
attr interpolationmode none
attr source ieee80211Unicast(packetReceivedFromPeer)
attr title "packets received: unicast, vector(packetBytes)"
vector 74 Network2.host2.wlan[0].mac.rx nav:vector ETV
attr interpolationmode linear
attr source navChanged
attr title "network allocation vector, vector"
vector 75 Network2.host3.udp packetReceived:vector(packetBytes) ETV
attr interpolationmode none
attr source packetReceived
attr title "packets received, vector(packetBytes)"
vector 76 Network2.host3.udp passedUpPk:vector(count) ETV
attr interpolationmode none
attr source packetSentToUpper
attr title "packets passed up, vector(count)"
vector 77 Network2.host2.udp droppedPkWrongPort:vector(count) ETV
attr interpolationmode none
attr source packetDropReasonIsNoPortFound(packetDropped)
attr title "packets dropped (wrong port), vector(count)"
vector 78 Network2.host1.app[0] packetSent:vector(packetBytes) ETV
attr interpolationmode none
attr source packetSent
attr title "packets sent, vector(packetBytes)"
vector 79 Network2.host1.udp packetSent:vector(packetBytes) ETV
attr interpolationmode none
attr source packetSent
attr title "packets sent, vector(packetBytes)"
vector 80 Network2.host1.wlan[0].mac packetReceivedFromUpper:vector(packetBytes) ETV
attr interpolationmode none
attr title "packets received from upper layer, vector(packetBytes)"
vector 81 Network2.host1.wlan[0].mac.dcf.channelAccess.pendingQueue packetPushed:vector(packetBytes) ETV
attr interpolationmode none
attr title "packet pushed, vector(packetBytes)"
vector 82 Network2.host1.wlan[0].mac.dcf.channelAccess.pendingQueue queueLength:vector ETV
attr interpolationmode sample-hold
attr source "count(packetPushed) - count(packetPopped) - count(packetRemoved) - count(packetDropped)"
attr title "queue length, vector"
vector 83 Network2.host1.wlan[0].mac.dcf.channelAccess.contention backoffPeriodGenerated:vector ETV
attr interpolationmode none
attr title "backoff periods, vector"
vector 84 Network2.host1.wlan[0].mac.dcf.channelAccess.contention backoffActive:vector ETV
attr interpolationmode sample-hold
attr source count(backoffStarted)-count(backoffStopped)
attr title "backoff active, vector"
vector 85 Network2.host1.wlan[0].mac.dcf.channelAccess.pendingQueue packetPopped:vector(packetBytes) ETV
attr interpolationmode none
attr title "packet popped, vector(packetBytes)"
vector 86 Network2.host1.wlan[0].mac.dcf.channelAccess.pendingQueue queueingTime:vector ETV
attr interpolationmode none
attr source queueingTime(packetPopped)
attr title "queueing times, vector"
attr unit s
vector 87 Network2.host1.wlan[0].mac.dcf.channelAccess.inProgressFrames queueLength:vector ETV
attr interpolationmode sample-hold
attr source "count(packetEnqueued) - count(packetDequeued)"
attr title "queue length, vector"
vector 88 Network2.host1.wlan[0].mac.dcf datarateSelected:vector ETV
attr interpolationmode none
attr title "datarates selected, vector"
vector 89 Network2.host1.wlan[0].mac packetSentToLower:vector(packetBytes) ETV
attr interpolationmode none
attr title "packets sent to lower layer, vector(packetBytes)"
vector 90 Network2.host1.wlan[0].mac.dcf frameSequenceActive:vector ETV
attr interpolationmode sample-hold
attr source count(frameSequenceStarted)-count(frameSequenceFinished)
attr title "frame sequence active, vector"
vector 91 Network2.host1.wlan[0].radio transmissionState:vector ETV
attr interpolationmode sample-hold
attr source transmissionStateChanged
attr title "Radio transmission state, vector"
vector 92 Network2.host1.wlan[0].mac.dcf packetSentToPeer:vector(packetBytes) ETV
attr interpolationmode none
attr title "packets sent, vector(packetBytes)"
vector 93 Network2.host1.wlan[0].mac.dcf packetSentToPeerMulticast:vector(packetBytes) ETV
attr interpolationmode none
attr source ieee80211Multicast(packetSentToPeer)
attr title "packets sent: multicast, vector(packetBytes)"
vector 94 Network2.host1.wlan[0].mac.dcf packetSentToPeerBroadcast:vector(packetBytes) ETV
attr interpolationmode none
attr source ieee80211Broadcast(packetSentToPeer)
attr title "packets sent: broadcast , vector(packetBytes)"
vector 95 Network2.host1.wlan[0].mac.dcf packetSentToPeerWithoutRetry:vector(packetBytes) ETV
attr interpolationmode none
attr source ieee80211NotRetry(packetSentToPeer)
attr title "packets sent: without retry, vector(packetBytes)"
vector 96 Network2.host1.wlan[0].mac.dcf.channelAccess.inProgressFrames queueingTime:vector ETV
attr interpolationmode none
attr source queueingTime(packetDequeued)
attr title "queueing times, vector"
vector 97 Network2.host4.wlan[0].mac packetReceivedFromLower:vector(packetBytes) ETV
attr interpolationmode none
attr title "packets received from lower layer, vector(packetBytes)"
vector 98 Network2.host4.wlan[0].mac.dcf packetReceivedFromPeer:vector(packetBytes) ETV
attr interpolationmode none
attr title "packets received, vector(packetBytes)"
vector 99 Network2.host4.wlan[0].mac.dcf packetReceivedFromPeerMulticast:vector(packetBytes) ETV
attr interpolationmode none
attr source ieee80211Multicast(packetReceivedFromPeer)
attr title "packets received: multicast, vector(packetBytes)"
vector 100 Network2.host4.wlan[0].mac.dcf packetReceivedFromPeerBroadcast:vector(packetBytes) ETV
attr interpolationmode none
attr source ieee80211Broadcast(packetReceivedFromPeer)
attr title "packets received: broadcast, vector(packetBytes)"
vector 101 Network2.host4.wlan[0].mac.dcf packetReceivedFromPeerWithoutRetry:vector(packetBytes) ETV
attr interpolationmode none
attr source ieee80211NotRetry(packetReceivedFromPeer)
attr title "packets received: without retry, vector(packetBytes)"
vector 102 Network2.host4.wlan[0].mac packetSentToUpper:vector(packetBytes) ETV
attr interpolationmode none
attr title "packets sent to upper layer, vector(packetBytes)"
vector 103 Network2.host4.udp packetReceived:vector(packetBytes) ETV
attr interpolationmode none
attr source packetReceived
attr title "packets received, vector(packetBytes)"
vector 104 Network2.host4.udp passedUpPk:vector(count) ETV
attr interpolationmode none
attr source packetSentToUpper
attr title "packets passed up, vector(count)"
vector 105 Network2.host4.udp packetSent:vector(packetBytes) ETV
attr interpolationmode none
attr source packetSent
attr title "packets sent, vector(packetBytes)"
vector 106 Network2.host4.wlan[0].mac packetReceivedFromUpper:vector(packetBytes) ETV
attr interpolationmode none
attr title "packets received from upper layer, vector(packetBytes)"
vector 107 Network2.host4.wlan[0].mac.dcf.channelAccess.pendingQueue packetPushed:vector(packetBytes) ETV
attr interpolationmode none
attr title "packet pushed, vector(packetBytes)"
vector 108 Network2.host4.wlan[0].mac.dcf.channelAccess.pendingQueue queueLength:vector ETV
attr interpolationmode sample-hold
attr source "count(packetPushed) - count(packetPopped) - count(packetRemoved) - count(packetDropped)"
attr title "queue length, vector"
vector 109 Network2.host4.wlan[0].mac.dcf.channelAccess.contention backoffPeriodGenerated:vector ETV
attr interpolationmode none
attr title "backoff periods, vector"
vector 110 Network2.host4.wlan[0].mac.dcf.channelAccess.contention backoffActive:vector ETV
attr interpolationmode sample-hold
attr source count(backoffStarted)-count(backoffStopped)
attr title "backoff active, vector"
vector 111 Network2.host4.wlan[0].mac.dcf.channelAccess.pendingQueue packetPopped:vector(packetBytes) ETV
attr interpolationmode none
attr title "packet popped, vector(packetBytes)"
vector 112 Network2.host4.wlan[0].mac.dcf.channelAccess.pendingQueue queueingTime:vector ETV
attr interpolationmode none
attr source queueingTime(packetPopped)
attr title "queueing times, vector"
attr unit s
vector 113 Network2.host4.wlan[0].mac.dcf.channelAccess.inProgressFrames queueLength:vector ETV
attr interpolationmode sample-hold
attr source "count(packetEnqueued) - count(packetDequeued)"
attr title "queue length, vector"
vector 114 Network2.host4.wlan[0].mac.dcf datarateSelected:vector ETV
attr interpolationmode none
attr title "datarates selected, vector"
vector 115 Network2.host4.wlan[0].mac packetSentToLower:vector(packetBytes) ETV
attr interpolationmode none
attr title "packets sent to lower layer, vector(packetBytes)"
vector 116 Network2.host4.wlan[0].mac.dcf frameSequenceActive:vector ETV
attr interpolationmode sample-hold
attr source count(frameSequenceStarted)-count(frameSequenceFinished)
attr title "frame sequence active, vector"
vector 117 Network2.host4.wlan[0].radio transmissionState:vector ETV
attr interpolationmode sample-hold
attr source transmissionStateChanged
attr title "Radio transmission state, vector"
vector 118 Network2.host4.wlan[0].mac.dcf packetSentToPeer:vector(packetBytes) ETV
attr interpolationmode none
attr title "packets sent, vector(packetBytes)"
vector 119 Network2.host4.wlan[0].mac.dcf packetSentToPeerMulticast:vector(packetBytes) ETV
attr interpolationmode none
attr source ieee80211Multicast(packetSentToPeer)
attr title "packets sent: multicast, vector(packetBytes)"
vector 120 Network2.host4.wlan[0].mac.dcf packetSentToPeerBroadcast:vector(packetBytes) ETV
attr interpolationmode none
attr source ieee80211Broadcast(packetSentToPeer)
attr title "packets sent: broadcast , vector(packetBytes)"
vector 121 Network2.host4.wlan[0].mac.dcf packetSentToPeerWithoutRetry:vector(packetBytes) ETV
attr interpolationmode none
attr source ieee80211NotRetry(packetSentToPeer)
attr title "packets sent: without retry, vector(packetBytes)"
vector 122 Network2.host4.wlan[0].mac.dcf.channelAccess.inProgressFrames queueingTime:vector ETV
attr interpolationmode none
attr source queueingTime(packetDequeued)
attr title "queueing times, vector"
vector 123 Network2.host1.wlan[0].mac packetReceivedFromLower:vector(packetBytes) ETV
attr interpolationmode none
attr title "packets received from lower layer, vector(packetBytes)"
vector 124 Network2.host1.wlan[0].mac.dcf packetReceivedFromPeer:vector(packetBytes) ETV
attr interpolationmode none
attr title "packets received, vector(packetBytes)"
vector 125 Network2.host1.wlan[0].mac.dcf packetReceivedFromPeerMulticast:vector(packetBytes) ETV
attr interpolationmode none
attr source ieee80211Multicast(packetReceivedFromPeer)
attr title "packets received: multicast, vector(packetBytes)"
vector 126 Network2.host1.wlan[0].mac.dcf packetReceivedFromPeerBroadcast:vector(packetBytes) ETV
attr interpolationmode none
attr source ieee80211Broadcast(packetReceivedFromPeer)
attr title "packets received: broadcast, vector(packetBytes)"
vector 127 Network2.host1.wlan[0].mac.dcf packetReceivedFromPeerWithoutRetry:vector(packetBytes) ETV
attr interpolationmode none
attr source ieee80211NotRetry(packetReceivedFromPeer)
attr title "packets received: without retry, vector(packetBytes)"
vector 128 Network2.host1.wlan[0].mac packetSentToUpper:vector(packetBytes) ETV
attr interpolationmode none
attr title "packets sent to upper layer, vector(packetBytes)"
vector 129 Network2.host1.udp packetReceived:vector(packetBytes) ETV
attr interpolationmode none
attr source packetReceived
attr title "packets received, vector(packetBytes)"
vector 130 Network2.host1.udp passedUpPk:vector(count) ETV
attr interpolationmode none
attr source packetSentToUpper
attr title "packets passed up, vector(count)"
0	0	0	0
0	0	0	0
0	0	0	2
0	204	0.026943233711	3
0	210	0.027001233711	2
0	2374	0.344550877438	3
0	2380	0.344608877438	2
0	4465	0.823883712532	3
0	4471	0.823941712532	2
0	9396	1.465848124083	3
0	9402	1.465906124083	2
1	0	0	0
2	0	0	0
2	0	0	0
2	0	0	2
2	41	0.007313247489	3
2	47	0.007363247489	2
2	74	0.007594103591	3
2	81	0.007628103591	2
2	88	0.007818103591	3
2	94	0.007876103591	2
2	138	0.008822959693	3
2	145	0.008856959693	2
2	152	0.009186959693	3
2	158	0.009244959693	2
2	275	0.045992913375	3
2	282	0.046026913375	2
2	289	0.046076913375	3
2	295	0.046134913375	2
2	343	0.047807683619	3
2	350	0.047841683619	2
2	357	0.048231683619	3
2	363	0.048289683619	2
2	411	0.055508193691	3
2	418	0.055542193691	2
2	425	0.055972193691	3
2	433	0.056030193691	2
2	491	0.064327766745	3
2	498	0.064361766745	2
2	505	0.064911766745	3
2	511	0.064969766745	2
2	565	0.074795621086	3
2	572	0.074829621086	2
2	581	0.075079621086	3
2	587	0.075137621086	2
2	647	0.091851997247	3
2	654	0.091885997247	2
2	661	0.091935997247	3
2	667	0.091993997247	2
2	715	0.094780579136	3
2	722	0.094814579136	2
2	729	0.094964579136	3
2	735	0.095022579136	2
2	783	0.099481828864	3
2	790	0.099515828864	2
2	797	0.099905828864	3
2	803	0.099963828864	2
2	856	0.102499132049	3
2	863	0.102533132049	2
2	870	0.103103132049	3
2	879	0.103161132049	2
2	942	0.116240799505	3
2	949	0.116274799505	2
2	956	0.116384799505	3
2	962	0.116442799505	2
2	1010	0.117149655607	3
2	1017	0.117183655607	2
2	1024	0.117513655607	3
2	1030	0.117571655607	2
2	1092	0.130313352339	3
2	1099	0.130347352339	2
2	1109	0.130897352339	3
2	1115	0.130955352339	2
2	1163	0.135738577062	3
2	1170	0.135772577062	2
2	1177	0.135902577062	3
2	1183	0.135960577062	2
2	1266	0.189192539216	3
2	1273	0.189226539216	2
2	1280	0.189896539216	3
2	1286	0.189954539216	2
2	1346	0.225038817918	3
2	1353	0.225072817918	2
2	1360	0.225182817918	3
2	1366	0.225240817918	2
2	1437	0.267921878386	3
2	1444	0.267955878386	2
2	1451	0.268045878386	3
2	1457	0.268103878386	2
2	1505	0.26945855957	3
2	1512	0.26949255957	2
2	1519	0.26960255957	3
2	1525	0.26966055957	2
2	1574	0.274050970956	3
2	1581	0.274084970956	2
2	1588	0.274414970956	3
2	1599	0.274472970956	2
2	1642	0.275299827058	3
2	1649	0.275333827058	2
2	1659	0.275743827058	3
2	1665	0.275801827058	2
2	1731	0.298885426044	3
2	1738	0.298919426044	2
2	1745	0.299409426044	3
2	1751	0.299467426044	2
2	1804	0.300174282146	3
2	1811	0.300208282146	2
2	1836	0.300651138248	3
2	1843	0.300685138248	2
2	1850	0.301055138248	3
2	1856	0.301113138248	2
2	1904	0.30197999435	3
2	1911	0.30201399435	2
2	1918	0.30212399435	3
2	1924	0.30218199435	2
2	1949	0.302556850452	3
2	1955	0.302614850452	2
2	2006	0.305425662088	3
2	2013	0.305459662088	2
2	2020	0.305769662088	3
2	2026	0.305827662088	2
2	2090	0.315083230886	3
2	2097	0.315117230886	2
2	2104	0.315207230886	3
2	2110	0.315265230886	2
2	2162	0.316983328961	3
2	2169	0.317017328961	2
2	2176	0.317287328961	3
2	2182	0.317345328961	2
2	2245	0.331581432802	3
2	2252	0.331615432802	2
2	2259	0.331705432802	3
2	2265	0.331763432802	2
2	2321	0.342340523251	3
2	2328	0.342374523251	2
2	2335	0.342424523251	3
2	2341	0.342482523251	2
2	2444	0.378967903134	3
2	2451	0.379001903134	2
2	2458	0.379531903134	3
2	2464	0.379589903134	2
2	2512	0.385028128107	3
2	2519	0.385062128107	2
2	2526	0.385532128107	3
2	2532	0.385590128107	2
2	2589	0.395474558023	3
2	2596	0.395508558023	2
2	2605	0.395998558023	3
2	2611	0.396056558023	2
2	2671	0.410977469249	3
2	2678	0.411011469249	2
2	2685	0.411561469249	3
2	2691	0.411619469249	2
2	2750	0.422166303814	3
2	2757	0.422200303814	2
2	2765	0.422430303814	3
2	2771	0.422488303814	2
2	2819	0.427969932053	3
2	2826	0.428003932053	2
2	2833	0.428273932053	3
2	2839	0.428331932053	2
2	2888	0.429716819794	3
2	2895	0.429750819794	2
2	2902	0.429820819794	3
2	2908	0.429878819794	2
2	2964	0.434961155959	3
2	2971	0.434995155959	2
2	2978	0.435105155959	3
2	2984	0.435163155959	2
2	3052	0.447631351263	3
2	3059	0.447665351263	2
2	3066	0.448295351263	3
2	3072	0.448353351263	2
2	3134	0.47433032715	3
2	3141	0.47436432715	2
2	3148	0.47499432715	3
2	3154	0.47505232715	2
2	3236	0.555515013389	3
2	3243	0.555549013389	2
2	3250	0.555839013389	3
2	3256	0.555897013389	2
2	3320	0.570879023835	3
2	3327	0.570913023835	2
2	3334	0.571003023835	3
2	3340	0.571061023835	2
2	3407	0.586590604203	3
2	3414	0.586624604203	2
2	3421	0.586994604203	3
2	3427	0.587052604203	2
2	3483	0.591674489419	3
2	3490	0.591708489419	2
2	3497	0.592078489419	3
2	3503	0.592136489419	2
2	3546	0.592843345521	3
2	3553	0.592877345521	2
2	3560	0.593087345521	3
2	3566	0.593145345521	2
2	3627	0.603720556972	3
2	3634	0.603754556972	2
2	3644	0.603864556972	3
2	3650	0.603922556972	2
2	3713	0.662270151628	3
2	3720	0.662304151628	2
2	3727	0.662454151628	3
2	3733	0.662512151628	2
2	3781	0.665096446509	3
2	3789	0.665130446509	2
2	3796	0.665600446509	3
2	3802	0.665658446509	2
2	3872	0.699765353612	3
2	3879	0.699799353612	2
2	3886	0.700409353612	3
2	3892	0.700467353612	2
2	3952	0.725309394746	3
2	3959	0.725343394746	2
2	3966	0.725753394746	3
2	3972	0.725811394746	2
2	4030	0.741652575438	3
2	4037	0.741686575438	2
2	4044	0.742256575438	3
2	4050	0.742314575438	2
2	4113	0.756703014679	3
2	4120	0.756737014679	2
2	4127	0.756847014679	3
2	4133	0.756905014679	2
2	4176	0.757711870781	3
2	4183	0.757745870781	2
2	4190	0.757955870781	3
2	4196	0.758013870781	2
2	4257	0.782556180752	3
2	4264	0.782590180752	2
2	4271	0.783020180752	3
2	4278	0.783078180752	2
2	4332	0.794454232267	3
2	4339	0.794488232267	2
2	4346	0.795018232267	3
2	4352	0.795076232267	2
2	4414	0.820443396437	3
2	4421	0.820477396437	2
2	4428	0.820967396437	3
2	4434	0.821025396437	2
2	4533	0.836193492353	3
2	4540	0.836227492353	2
2	4547	0.836417492353	3
2	4553	0.836475492353	2
2	4608	0.851113701688	3
2	4615	0.851147701688	2
2	4622	0.851357701688	3
2	4628	0.851415701688	2
2	4686	0.863584169327	3
2	4693	0.863618169327	2
2	4700	0.863928169327	3
2	4706	0.863986169327	2
2	4767	0.880080328773	3
2	4774	0.880114328773	2
2	4781	0.880584328773	3
2	4787	0.880642328773	2
2	4839	0.890080867661	3
2	4846	0.890114867661	2
2	4855	0.890624867661	3
2	4862	0.890682867661	2
2	4911	0.89168095514	3
2	4918	0.89171495514	2
2	4928	0.89222495514	3
2	4934	0.89228295514	2
2	4990	0.909075612457	3
2	4997	0.909109612457	2
2	5027	0.910120915456	3
2	5034	0.910154915456	2
2	5041	0.910244915456	3
2	5047	0.910302915456	2
2	5072	0.910957771558	3
2	5078	0.911015771558	2
2	5135	0.920659496401	3
2	5142	0.920693496401	2
2	5149	0.920983496401	3
2	5156	0.921041496401	2
2	5215	0.923965831645	3
2	5222	0.923999831645	2
2	5251	0.924582687747	3
2	5258	0.924616687747	2
2	5265	0.925006687747	3
2	5271	0.925064687747	2
2	5314	0.925691543849	3
2	5321	0.925725543849	2
2	5328	0.925935543849	3
2	5334	0.925993543849	2
2	5359	0.926588399951	3
2	5365	0.926646399951	2
2	5434	0.945755896325	3
2	5441	0.945789896325	2
2	5448	0.945879896325	3
2	5454	0.945937896325	2
2	5507	0.956947238588	3
2	5514	0.956981238588	2
2	5521	0.957291238588	3
2	5527	0.957349238588	2
2	5575	0.960110163942	3
2	5582	0.960144163942	2
2	5589	0.960274163942	3
2	5595	0.960332163942	2
2	5658	0.994149846263	3
2	5665	0.994183846263	2
2	5672	0.994333846263	3
2	5678	0.994391846263	2
2	5736	1.016487025979	3
2	5743	1.016521025979	2
2	5750	1.016951025979	3
2	5759	1.017009025979	2
2	5821	1.060402913948	3
2	5828	1.060436913948	2
2	5835	1.060966913948	3
2	5841	1.061024913948	2
2	5892	1.065920409761	3
2	5899	1.065954409761	2
2	5906	1.066064409761	3
2	5912	1.066122409761	2
2	5960	1.068446809219	3
2	5967	1.068480809219	2
2	5974	1.068930809219	3
2	5980	1.068988809219	2
2	6032	1.071494945759	3
2	6039	1.071528945759	2
2	6046	1.071898945759	3
2	6052	1.071956945759	2
2	6117	1.095277629852	3
2	6124	1.095311629852	2
2	6131	1.095981629852	3
2	6137	1.096039629852	2
2	6199	1.113126786904	3
2	6206	1.113160786904	2
2	6220	1.113570786904	3
2	6226	1.113628786904	2
2	6274	1.114832293041	3
2	6281	1.114866293041	2
2	6288	1.115436293041	3
2	6294	1.115494293041	2
2	6342	1.116739491197	3
2	6349	1.116773491197	2
2	6356	1.116963491197	3
2	6362	1.117021491197	2
2	6410	1.117865985764	3
2	6417	1.117899985764	2
2	6424	1.118009985764	3
2	6430	1.118067985764	2
2	6478	1.121244274034	3
2	6485	1.121278274034	2
2	6492	1.121368274034	3
2	6498	1.121426274034	2
2	6565	1.131024494005	3
2	6572	1.131058494005	2
2	6579	1.131188494005	3
2	6587	1.131246494005	2
2	6638	1.13480641435	3
2	6645	1.13484041435	2
2	6652	1.13527041435	3
2	6658	1.13532841435	2
2	6714	1.142572510799	3
2	6721	1.142606510799	2
2	6728	1.143256510799	3
2	6734	1.143314510799	2
2	6798	1.156369407452	3
2	6805	1.156403407452	2
2	6812	1.156573407452	3
2	6818	1.156631407452	2
2	6867	1.164913504239	3
2	6874	1.164947504239	2
2	6881	1.164997504239	3
2	6887	1.165055504239	2
2	6939	1.167690555902	3
2	6946	1.167724555902	2
2	6953	1.168374555902	3
2	6959	1.168432555902	2
2	7025	1.181414843349	3
2	7032	1.181448843349	2
2	7039	1.181878843349	3
2	7045	1.181936843349	2
2	7093	1.183133879606	3
2	7100	1.183167879606	2
2	7107	1.183597879606	3
2	7113	1.183655879606	2
2	7175	1.198204601418	3
2	7182	1.198238601418	2
2	7189	1.198288601418	3
2	7195	1.198346601418	2
2	7243	1.206247383937	3
2	7250	1.206281383937	2
2	7258	1.206571383937	3
2	7264	1.206629383937	2
2	7317	1.208542936488	3
2	7324	1.208576936488	2
2	7331	1.208706936488	3
2	7337	1.208764936488	2
2	7389	1.218297716822	3
2	7396	1.218331716822	2
2	7405	1.218721716822	3
2	7412	1.218779716822	2
2	7461	1.220161143848	3
2	7468	1.220195143848	2
2	7475	1.220505143848	3
2	7481	1.220563143848	2
2	7544	1.229459252402	3
2	7551	1.229493252402	2
2	7558	1.229803252402	3
2	7564	1.229861252402	2
2	7616	1.23062082207	3
2	7623	1.23065482207	2
2	7630	1.23088482207	3
2	7636	1.23094282207	2
2	7684	1.231949678172	3
2	7691	1.231983678172	2
2	7698	1.232473678172	3
2	7704	1.232531678172	2
2	7768	1.256819861285	3
2	7775	1.256853861285	2
2	7782	1.257023861285	3
2	7788	1.257081861285	2
2	7847	1.271252426691	3
2	7854	1.271286426691	2
2	7861	1.271536426691	3
2	7867	1.271594426691	2
2	7923	1.28873114923	3
2	7930	1.28876514923	2
2	7937	1.28923514923	3
2	7943	1.28929314923	2
2	7991	1.296084094568	3
2	7998	1.296118094568	2
2	8005	1.296288094568	3
2	8011	1.296346094568	2
2	8069	1.31948381751	3
2	8076	1.31951781751	2
2	8083	1.31958781751	3
2	8089	1.31964581751	2
2	8144	1.329773038741	3
2	8151	1.329807038741	2
2	8158	1.329957038741	3
2	8164	1.330015038741	2
2	8218	1.350055858198	3
2	8225	1.350089858198	2
2	8232	1.350499858198	3
2	8238	1.350557858198	2
2	8290	1.356154491647	3
2	8297	1.356188491647	2
2	8304	1.356238491647	3
2	8310	1.356296491647	2
2	8378	1.371764540777	3
2	8385	1.371798540777	2
2	8392	1.372328540777	3
2	8398	1.372386540777	2
2	8449	1.377731052213	3
2	8456	1.377765052213	2
2	8463	1.378115052213	3
2	8469	1.378173052213	2
2	8532	1.391414398736	3
2	8539	1.391448398736	2
2	8549	1.391898398736	3
2	8555	1.391956398736	2
2	8603	1.396161185941	3
2	8615	1.396195185941	2
2	8640	1.396738042043	3
2	8647	1.396772042043	2
2	8654	1.397282042043	3
2	8660	1.397340042043	2
2	8685	1.397974898145	3
2	8691	1.398032898145	2
2	8746	1.403284893472	3
2	8753	1.403318893472	2
2	8760	1.403628893472	3
2	8766	1.403686893472	2
2	8817	1.406768174453	3
2	8825	1.406802174453	2
2	8832	1.407192174453	3
2	8838	1.407250174453	2
2	8890	1.408453883056	3
2	8897	1.408487883056	2
2	8905	1.409057883056	3
2	8911	1.409115883056	2
2	8959	1.410022739158	3
2	8966	1.410056739158	2
2	8973	1.410366739158	3
2	8979	1.410424739158	2
2	9035	1.415553519071	3
2	9042	1.415587519071	2
2	9052	1.415737519071	3
2	9058	1.415795519071	2
2	9125	1.427772130017	3
2	9132	1.427806130017	2
2	9139	1.428296130017	3
2	9145	1.428354130017	2
2	9200	1.447196062814	3
2	9207	1.447230062814	2
2	9214	1.447580062814	3
2	9220	1.447638062814	2
2	9268	1.450585423358	3
2	9275	1.450619423358	2
2	9282	1.450869423358	3
2	9288	1.450927423358	2
2	9340	1.459325954234	3
2	9348	1.459359954234	2
2	9355	1.459909954234	3
2	9361	1.459967954234	2
2	9458	1.469033710576	3
2	9465	1.469067710576	2
2	9472	1.469217710576	3
2	9478	1.469275710576	2
2	9550	1.510681451542	3
2	9557	1.510715451542	2
2	9564	1.511045451542	3
2	9570	1.511103451542	2
2	9629	1.552355720013	3
2	9636	1.552389720013	2
2	9643	1.552459720013	3
2	9649	1.552517720013	2
2	9698	1.555465067084	3
2	9705	1.555499067084	2
2	9712	1.555829067084	3
2	9718	1.555887067084	2
2	9766	1.558654865672	3
2	9773	1.558688865672	2
2	9785	1.559118865672	3
2	9791	1.559176865672	2
2	9834	1.559783721774	3
2	9841	1.559817721774	2
2	9848	1.560147721774	3
2	9854	1.560205721774	2
2	9924	1.584992834836	3
2	9931	1.585026834836	2
2	9938	1.585516834836	3
2	9944	1.585574834836	2
2	10008	1.601570343794	3
2	10015	1.601604343794	2
2	10022	1.602014343794	3
2	10028	1.602072343794	2
2	10084	1.617661164489	3
2	10091	1.617695164489	2
2	10098	1.618325164489	3
2	10104	1.618383164489	2
2	10159	1.629722552272	3
2	10166	1.629756552272	2
2	10173	1.630266552272	3
2	10179	1.630324552272	2
2	10236	1.644153240409	3
2	10243	1.644187240409	2
2	10250	1.644637240409	3
2	10261	1.644695240409	2
2	10304	1.645302096511	3
2	10311	1.645336096511	2
2	10318	1.645566096511	3
2	10324	1.645624096511	2
2	10372	1.647018833086	3
2	10379	1.647052833086	2
2	10386	1.647282833086	3
2	10392	1.647340833086	2
2	10440	1.648707774951	3
2	10447	1.648741774951	2
2	10454	1.648871774951	3
2	10460	1.648929774951	2
2	10513	1.654498677533	3
2	10520	1.654532677533	2
2	10529	1.654742677533	3
2	10535	1.654800677533	2
2	10595	1.663997986668	3
2	10602	1.664031986668	2
2	10609	1.664081986668	3
2	10615	1.664139986668	2
2	10671	1.674762622837	3
2	10678	1.674796622837	2
2	10685	1.674906622837	3
2	10691	1.674964622837	2
2	10739	1.68102795849	3
2	10746	1.68106195849	2
2	10753	1.68147195849	3
2	10759	1.68152995849	2
2	10809	1.684831687049	3
2	10816	1.684865687049	2
2	10825	1.685075687049	3
2	10831	1.685133687049	2
2	10879	1.690995914408	3
2	10887	1.691029914408	2
2	10895	1.691219914408	3
2	10901	1.691277914408	2
2	10961	1.699455306265	3
2	10968	1.699489306265	2
2	10975	1.699919306265	3
2	10981	1.699977306265	2
2	11042	1.716119433551	3
2	11049	1.716153433551	2
2	11056	1.716263433551	3
2	11062	1.716321433551	2
2	11110	1.717188289653	3
2	11117	1.717222289653	2
2	11124	1.717312289653	3
2	11130	1.717370289653	2
2	11178	1.723808443425	3
2	11185	1.723842443425	2
2	11192	1.724292443425	3
2	11198	1.724350443425	2
2	11254	1.72894973577	3
2	11261	1.72898373577	2
2	11268	1.72911373577	3
2	11274	1.72917173577	2
2	11331	1.742642255781	3
2	11338	1.742676255781	2
2	11345	1.742966255781	3
2	11351	1.743024255781	2
2	11413	1.769445933994	3
2	11420	1.769479933994	2
2	11427	1.770109933994	3
2	11433	1.770167933994	2
2	11481	1.773433061477	3
2	11488	1.773467061477	2
2	11495	1.773737061477	3
2	11501	1.773795061477	2
2	11563	1.788301499566	3
2	11570	1.788335499566	2
2	11577	1.788625499566	3
2	11583	1.788683499566	2
2	11652	1.818931217489	3
2	11659	1.818965217489	2
2	11666	1.819495217489	3
2	11672	1.819553217489	2
2	11720	1.820300073591	3
2	11727	1.820334073591	2
2	11734	1.820984073591	3
2	11740	1.821042073591	2
2	11793	1.829481966225	3
2	11800	1.829515966225	2
2	11809	1.829645966225	3
2	11815	1.829703966225	2
2	11867	1.832572984621	3
2	11874	1.832606984621	2
2	11884	1.833256984621	3
2	11890	1.833314984621	2
2	11952	1.875515005331	3
2	11959	1.875549005331	2
2	11966	1.875919005331	3
2	11972	1.875977005331	2
2	12025	1.884070483081	3
2	12035	1.884104483081	2
2	12042	1.884674483081	3
2	12048	1.884732483081	2
2	12100	1.891072005149	3
2	12107	1.891106005149	2
2	12114	1.891536005149	3
2	12120	1.891594005149	2
2	12168	1.892215418943	3
2	12175	1.892249418943	2
2	12182	1.892859418943	3
2	12188	1.892917418943	2
2	12244	1.898553146832	3
2	12251	1.898587146832	2
2	12258	1.898777146832	3
2	12264	1.898835146832	2
2	12334	1.924007000314	3
2	12341	1.924041000314	2
2	12348	1.924151000314	3
2	12354	1.924209000314	2
2	12405	1.93336142066	3
2	12412	1.93339542066	2
2	12419	1.93354542066	3
2	12425	1.93360342066	2
2	12501	1.974773542212	3
2	12508	1.974807542212	2
2	12515	1.974937542212	3
2	12521	1.974995542212	2
2	12569	1.981869175639	3
2	12576	1.981903175639	2
2	12583	1.982493175639	3
2	12589	1.982551175639	2
2	12637	1.983964709197	3
2	12644	1.983998709197	2
2	12651	1.984488709197	3
2	12657	1.984546709197	2
2	12712	1.990928184253	3
2	12719	1.990962184253	2
2	12726	1.991312184253	3
2	12732	1.991370184253	2
2	12787	1.994338821175	3
2	12794	1.994372821175	2
2	12803	1.994702821175	3
2	12809	1.994760821175	2
2	12866	2.003086901832	3
2	12873	2.003120901832	2
2	12883	2.003610901832	3
2	12889	2.003668901832	2
2	12948	2.019246429294	3
2	12955	2.019280429294	2
2	12962	2.019410429294	3
2	12968	2.019468429294	2
2	13016	2.023602995147	3
2	13023	2.023636995147	2
2	13030	2.024066995147	3
2	13036	2.024124995147	2
2	13089	2.028999555562	3
2	13096	2.029033555562	2
2	13103	2.029103555562	3
2	13109	2.029161555562	2
2	13161	2.031303050385	3
2	13168	2.031337050385	2
2	13178	2.031707050385	3
2	13184	2.031765050385	2
2	13247	2.044989344085	3
2	13254	2.045023344085	2
2	13261	2.045153344085	3
2	13267	2.045211344085	2
2	13315	2.048998245082	3
2	13322	2.049032245082	2
2	13329	2.049622245082	3
2	13335	2.049680245082	2
2	13390	2.057669471932	3
2	13397	2.057703471932	2
2	13407	2.058333471932	3
2	13413	2.058391471932	2
2	13471	2.062609878866	3
2	13478	2.062643878866	2
2	13485	2.063273878866	3
2	13491	2.063331878866	2
2	13552	2.073339149524	3
2	13559	2.073373149524	2
2	13567	2.073483149524	3
2	13573	2.073541149524	2
2	13622	2.078543543169	3
2	13629	2.078577543169	2
2	13636	2.079087543169	3
2	13642	2.079145543169	2
2	13698	2.091921945418	3
2	13705	2.091955945418	2
2	13712	2.092105945418	3
2	13718	2.092163945418	2
2	13766	2.101885073179	3
2	13774	2.101919073179	2
2	13784	2.102469073179	3
2	13790	2.102527073179	2
2	13838	2.103493929281	3
2	13845	2.103527929281	2
2	13880	2.104358021921	3
2	13887	2.104392021921	2
2	13894	2.104522021921	3
2	13900	2.104580021921	2
2	13925	2.104894878023	3
2	13931	2.104952878023	2
2	13974	2.105459734125	3
2	13981	2.105493734125	2
2	13988	2.105823734125	3
2	13994	2.105881734125	2
2	14043	2.111414705109	3
2	14050	2.111448705109	2
2	14059	2.111938705109	3
2	14065	2.111996705109	2
2	14135	2.149669315176	3
2	14142	2.149703315176	2
2	14149	2.150073315176	3
2	14155	2.150131315176	2
2	14212	2.166085963433	3
2	14219	2.166119963433	2
2	14226	2.166589963433	3
2	14232	2.166647963433	2
2	14280	2.172211905385	3
2	14287	2.172245905385	2
2	14294	2.172495905385	3
2	14300	2.172553905385	2
2	14348	2.174131235945	3
2	14355	2.174165235945	2
2	14362	2.174295235945	3
2	14368	2.174353235945	2
2	14429	2.186963208645	3
2	14436	2.186997208645	2
2	14443	2.187147208645	3
2	14449	2.187205208645	2
2	14497	2.1881910304	3
2	14504	2.1882250304	2
2	14511	2.1887550304	3
2	14517	2.1888130304	2
2	14565	2.193974780915	3
2	14572	2.194008780915	2
2	14579	2.194418780915	3
2	14585	2.194476780915	2
2	14657	2.244318004356	3
2	14664	2.244352004356	2
2	14671	2.244742004356	3
2	14677	2.244800004356	2
2	14725	2.245586860458	3
2	14732	2.245620860458	2
2	14739	2.245710860458	3
2	14745	2.245768860458	2
2	14793	2.253514734996	3
2	14800	2.253548734996	2
2	14807	2.254118734996	3
2	14813	2.254176734996	2
2	14869	2.256733412115	3
2	14876	2.256767412115	2
2	14883	2.257317412115	3
2	14889	2.257375412115	2
2	14937	2.258322268217	3
2	14944	2.258356268217	2
2	14951	2.258486268217	3
2	14957	2.258544268217	2
2	15016	2.264443208086	3
2	15023	2.264477208086	2
2	15030	2.264847208086	3
2	15036	2.264905208086	2
2	15084	2.265892064188	3
2	15091	2.265926064188	2
2	15098	2.265996064188	3
2	15104	2.266054064188	2
2	15175	2.278030340102	3
2	15182	2.278064340102	2
2	15189	2.278434340102	3
2	15195	2.278492340102	2
2	15256	2.299530192133	3
2	15263	2.299564192133	2
2	15270	2.299754192133	3
2	15276	2.299812192133	2
2	15333	2.31071643302	3
2	15340	2.31075043302	2
2	15347	2.31118043302	3
2	15353	2.31123843302	2
2	15406	2.312105289122	3
2	15413	2.312139289122	2
2	15441	2.312802145224	3
2	15448	2.312836145224	2
2	15455	2.313006145224	3
2	15461	2.313064145224	2
2	15486	2.313679001326	3
2	15492	2.313737001326	2
2	15565	2.345597513103	3
2	15572	2.345631513103	2
2	15579	2.345901513103	3
2	15585	2.345959513103	2
2	15638	2.357639805758	3
2	15645	2.357673805758	2
2	15652	2.357783805758	3
2	15659	2.357841805758	2
2	15711	2.358709858745	3
2	15718	2.358743858745	2
2	15725	2.359113858745	3
2	15736	2.359171858745	2
2	15780	2.359798714847	3
2	15787	2.359832714847	2
2	15794	2.360422714847	3
2	15800	2.360480714847	2
2	15868	2.382809466365	3
2	15875	2.382843466365	2
2	15882	2.383253466365	3
2	15888	2.383311466365	2
2	15936	2.38765450125	3
2	15943	2.38768850125	2
2	15950	2.38811850125	3
2	15956	2.38817650125	2
2	16008	2.394335750987	3
2	16015	2.394369750987	2
2	16022	2.394479750987	3
2	16028	2.394537750987	2
2	16076	2.395444607089	3
2	16083	2.395478607089	2
2	16090	2.396088607089	3
2	16096	2.396146607089	2
2	16150	2.401110445818	3
2	16157	2.401144445818	2
2	16164	2.401434445818	3
2	16170	2.401492445818	2
2	16218	2.402316512103	3
2	16225	2.402350512103	2
2	16232	2.402620512103	3
2	16239	2.402678512103	2
2	16306	2.415533265043	3
2	16313	2.415567265043	2
2	16320	2.415637265043	3
2	16326	2.415695265043	2
2	16374	2.420974226063	3
2	16381	2.421008226063	2
2	16388	2.421298226063	3
2	16394	2.421356226063	2
2	16449	2.426640971047	3
2	16456	2.426674971047	2
2	16463	2.427104971047	3
2	16469	2.427162971047	2
2	16527	2.434862411982	3
2	16534	2.434896411982	2
2	16541	2.435046411982	3
2	16547	2.435104411982	2
2	16595	2.436360742276	3
2	16602	2.436394742276	2
2	16639	2.437077598378	3
2	16646	2.437111598378	2
2	16655	2.437221598378	3
2	16661	2.437279598378	2
2	16686	2.43755445448	3
2	16692	2.43761245448	2
2	16735	2.438259310582	3
2	16742	2.438293310582	2
2	16749	2.438663310582	3
2	16755	2.438721310582	2
2	16816	2.447364191256	3
2	16823	2.447398191256	2
2	16830	2.447448191256	3
2	16836	2.447506191256	2
2	16896	2.462623511284	3
2	16903	2.462657511284	2
2	16910	2.463067511284	3
2	16916	2.463125511284	2
2	16967	2.466910532827	3
2	16974	2.466944532827	2
2	16981	2.467554532827	3
2	16987	2.467612532827	2
2	17040	2.475737213886	3
2	17052	2.475771213886	2
2	17077	2.476474069988	3
2	17084	2.476508069988	2
2	17091	2.476818069988	3
2	17097	2.476876069988	2
2	17129	2.47733092609	3
2	17135	2.47738892609	2
2	17180	2.477915782192	3
2	17187	2.477949782192	2
2	17194	2.478139782192	3
2	17200	2.478197782192	2
2	17257	2.487595858887	3
2	17264	2.487629858887	2
2	17274	2.488219858887	3
2	17281	2.488277858887	2
2	17330	2.494652384627	3
2	17337	2.494686384627	2
2	17344	2.494956384627	3
2	17350	2.495014384627	2
2	17415	2.512535373667	3
2	17422	2.512569373667	2
2	17429	2.512959373667	3
2	17435	2.513017373667	2
2	17487	2.526048007239	3
2	17494	2.526082007239	2
2	17501	2.526312007239	3
2	17507	2.526370007239	2
2	17556	2.528975163277	3
2	17563	2.529009163277	2
2	17570	2.529399163277	3
2	17576	2.529457163277	2
2	17633	2.544312198804	3
2	17640	2.544346198804	2
2	17647	2.544636198804	3
2	17653	2.544694198804	2
2	17705	2.552485822141	3
2	17712	2.552519822141	2
2	17719	2.553009822141	3
2	17725	2.553067822141	2
2	17790	2.596747485847	3
2	17797	2.596781485847	2
2	17804	2.596971485847	3
2	17811	2.597029485847	2
2	17860	2.601099779481	3
2	17867	2.601133779481	2
2	17874	2.601263779481	3
2	17880	2.601321779481	2
2	17928	2.602466107369	3
2	17935	2.602500107369	2
2	17942	2.603150107369	3
2	17948	2.603208107369	2
2	17997	2.605863329317	3
2	18004	2.605897329317	2
2	18011	2.606547329317	3
2	18017	2.606605329317	2
2	18086	2.623618231013	3
2	18093	2.623652231013	2
2	18100	2.624082231013	3
2	18106	2.624140231013	2
2	18149	2.624647087115	3
2	18156	2.624681087115	2
2	18163	2.624911087115	3
2	18169	2.624969087115	2
2	18222	2.62697808926	3
2	18229	2.62701208926	2
2	18236	2.62744208926	3
2	18242	2.62750008926	2
2	18285	2.628026945362	3
2	18292	2.628060945362	2
2	18299	2.628710945362	3
2	18305	2.628768945362	2
2	18373	2.63952885334	3
2	18380	2.63956285334	2
2	18387	2.63967285334	3
2	18393	2.63973085334	2
2	18451	2.654343499777	3
2	18458	2.654377499777	2
2	18465	2.654507499777	3
2	18471	2.654565499777	2
2	18525	2.671977899567	3
2	18532	2.672011899567	2
2	18539	2.672401899567	3
2	18545	2.672459899567	2
2	18593	2.676063637865	3
2	18600	2.676097637865	2
2	18607	2.676247637865	3
2	18613	2.676305637865	2
2	18661	2.677494816305	3
2	18668	2.677528816305	2
2	18675	2.677858816305	3
2	18681	2.677916816305	2
2	18732	2.67992069954	3
2	18739	2.67995469954	2
2	18746	2.68058469954	3
2	18752	2.68064269954	2
2	18826	2.696329568168	3
2	18833	2.696363568168	2
2	18843	2.696873568168	3
2	18849	2.696931568168	2
2	18912	2.728658260388	3
2	18919	2.728692260388	2
2	18926	2.729002260388	3
2	18932	2.729060260388	2
2	18991	2.751785914355	3
2	18998	2.751819914355	2
2	19028	2.752582770457	3
2	19035	2.752616770457	2
2	19042	2.752846770457	3
2	19048	2.752904770457	2
2	19073	2.753079626559	3
2	19079	2.753137626559	2
2	19138	2.767458620925	3
2	19145	2.767492620925	2
2	19152	2.767962620925	3
2	19158	2.768020620925	2
2	19213	2.780711982585	3
2	19220	2.780745982585	2
2	19227	2.781295982585	3
2	19233	2.781353982585	2
2	19302	2.807927867275	3
2	19309	2.807961867275	2
2	19316	2.808371867275	3
2	19322	2.808429867275	2
2	19365	2.808936723377	3
2	19372	2.808970723377	2
2	19379	2.809140723377	3
2	19385	2.809198723377	2
2	19442	2.821818794941	3
2	19449	2.821852794941	2
2	19456	2.822282794941	3
2	19462	2.822340794941	2
2	19510	2.824156468099	3
2	19517	2.824190468099	2
2	19524	2.824300468099	3
2	19530	2.824358468099	2
2	19578	2.825795774415	3
2	19585	2.825829774415	2
2	19592	2.825899774415	3
2	19598	2.825957774415	2
2	19646	2.829078552762	3
2	19653	2.829112552762	2
2	19661	2.829702552762	3
2	19667	2.829760552762	2
2	19735	2.843278627042	3
2	19742	2.843312627042	2
2	19749	2.843702627042	3
2	19755	2.843760627042	2
2	19803	2.846788963917	3
2	19810	2.846822963917	2
2	19817	2.847352963917	3
2	19823	2.847410963917	2
2	19880	2.858977515994	3
2	19887	2.859011515994	2
2	19894	2.859101515994	3
2	19900	2.859159515994	2
2	19948	2.861439949814	3
2	19955	2.861473949814	2
2	19962	2.862063949814	3
2	19968	2.862121949814	2
2	20016	2.866179053319	3
2	20023	2.866213053319	2
2	20030	2.866663053319	3
2	20036	2.866721053319	2
2	20092	2.873285150967	3
2	20099	2.873319150967	2
2	20106	2.873509150967	3
2	20112	2.873567150967	2
2	20165	2.87859095303	3
2	20172	2.87862495303	2
2	20179	2.87905495303	3
2	20185	2.87911295303	2
2	20248	2.894380723811	3
2	20255	2.894414723811	2
2	20265	2.895064723811	3
2	20271	2.895122723811	2
2	20319	2.897707165073	3
2	20326	2.897741165073	2
2	20333	2.898051165073	3
2	20339	2.898109165073	2
2	20399	2.913684017278	3
2	20406	2.913718017278	2
2	20418	2.913888017278	3
2	20424	2.913946017278	2
2	20467	2.91467287338	3
2	20474	2.91470687338	2
2	20481	2.91533687338	3
2	20487	2.91539487338	2
2	20541	2.92248343898	3
2	20548	2.92251743898	2
2	20555	2.92262743898	3
2	20561	2.92268543898	2
2	20627	2.954860435495	3
2	20634	2.954894435495	2
2	20641	2.955424435495	3
2	20647	2.955482435495	2
2	20705	2.969199573095	3
2	20712	2.969233573095	2
2	20719	2.969483573095	3
2	20725	2.969541573095	2
2	20776	2.971801053404	3
2	20783	2.971835053404	2
2	20790	2.971965053404	3
2	20796	2.972023053404	2
2	20855	2.98472095719	3
2	20862	2.98475495719	2
2	20892	2.985497813292	3
2	20899	2.985531813292	2
2	20906	2.985761813292	3
2	20912	2.985819813292	2
2	20937	2.986114669394	3
2	20943	2.986172669394	2
2	20991	2.986799525496	3
2	20998	2.986833525496	2
2	21005	2.987363525496	3
2	21011	2.987421525496	2
2	21067	2.996671291581	3
2	21074	2.996705291581	2
2	21083	2.996895291581	3
2	21089	2.996953291581	2
2	21143	3.001700141224	3
2	21150	3.001734141224	2
2	21157	3.002024141224	3
2	21163	3.002082141224	2
2	21214	3.00623270569	3
2	21221	3.00626670569	2
2	21230	3.00671670569	3
2	21236	3.00677470569	2
2	21295	3.014194965909	3
2	21302	3.014228965909	2
2	21309	3.014558965909	3
2	21315	3.014616965909	2
2	21372	3.029711829164	3
2	21379	3.029745829164	2
2	21386	3.030095829164	3
2	21392	3.030153829164	2
2	21447	3.045933991447	3
2	21454	3.045967991447	2
2	21464	3.046557991447	3
2	21470	3.046615991447	2
2	21518	3.050915748181	3
2	21525	3.050949748181	2
2	21532	3.051259748181	3
2	21538	3.051317748181	2
2	21599	3.067874985964	3
2	21606	3.067908985964	2
2	21613	3.068298985964	3
2	21619	3.068356985964	2
2	21667	3.070032155022	3
2	21674	3.070066155022	2
2	21681	3.070136155022	3
2	21687	3.070194155022	2
2	21749	3.093927232918	3
2	21756	3.093961232918	2
2	21763	3.094071232918	3
2	21769	3.094129232918	2
2	21834	3.139467620923	3
2	21841	3.139501620923	2
2	21848	3.139811620923	3
2	21854	3.139869620923	2
2	21927	3.183180137179	3
2	21934	3.183214137179	2
2	21941	3.183264137179	3
2	21947	3.183322137179	2
2	21996	3.184687461371	3
2	22003	3.184721461371	2
2	22010	3.184991461371	3
2	22016	3.185049461371	2
2	22070	3.192058824714	3
2	22077	3.192092824714	2
2	22084	3.192362824714	3
2	22090	3.192420824714	2
2	22141	3.193347680816	3
2	22149	3.193381680816	2
2	22156	3.194051680816	3
2	22162	3.194109680816	2
2	22226	3.22090474941	3
2	22233	3.22093874941	2
2	22240	3.22128874941	3
2	22246	3.22134674941	2
2	22294	3.229374973351	3
2	22301	3.229408973351	2
2	22308	3.229658973351	3
2	22314	3.229716973351	2
2	22366	3.232011658297	3
2	22373	3.232045658297	2
2	22380	3.232555658297	3
2	22386	3.232613658297	2
2	22435	3.236125735007	3
2	22442	3.236159735007	2
2	22449	3.236789735007	3
2	22455	3.236847735007	2
2	22517	3.244808836224	3
2	22524	3.244842836224	2
2	22531	3.245372836224	3
2	22537	3.245430836224	2
2	22597	3.255533138925	3
2	22604	3.255567138925	2
2	22611	3.255997138925	3
2	22617	3.256055138925	2
2	22676	3.277081022191	3
2	22683	3.277115022191	2
2	22713	3.277657878293	3
2	22720	3.277691878293	2
2	22727	3.277821878293	3
2	22733	3.277879878293	2
2	22776	3.278486734395	3
2	22783	3.278520734395	2
2	22790	3.278910734395	3
2	22796	3.278968734395	2
2	22821	3.279383590497	3
2	22827	3.279441590497	2
2	22898	3.292253202933	3
2	22905	3.292287202933	2
2	22912	3.292457202933	3
2	22918	3.292515202933	2
2	22970	3.303036978389	3
2	22977	3.303070978389	2
2	22984	3.303200978389	3
2	22990	3.303258978389	2
2	23044	3.310788161832	3
2	23051	3.310822161832	2
2	23058	3.311072161832	3
2	23064	3.311130161832	2
2	23117	3.319597827628	3
2	23124	3.319631827628	2
2	23131	3.319961827628	3
2	23137	3.320019827628	2
2	23189	3.321190455986	3
2	23196	3.321224455986	2
2	23204	3.321854455986	3
2	23210	3.321912455986	2
2	23263	3.330503934117	3
2	23275	3.330537934117	2
2	23282	3.330887934117	3
2	23288	3.330945934117	2
2	23341	3.331532790219	3
2	23348	3.331566790219	2
2	23375	3.332389646321	3
2	23382	3.332423646321	2
2	23389	3.332673646321	3
2	23395	3.332731646321	2
2	23420	3.333326502423	3
2	23426	3.333384502423	2
2	23474	3.334825147184	3
2	23481	3.334859147184	2
2	23488	3.335449147184	3
2	23494	3.335507147184	2
2	23565	3.351180827164	3
2	23572	3.351214827164	2
2	23579	3.351264827164	3
2	23585	3.351322827164	2
2	23643	3.373814613087	3
2	23650	3.373848613087	2
2	23657	3.374078613087	3
2	23663	3.374136613087	2
2	23711	3.375476875192	3
2	23718	3.375510875192	2
2	23725	3.375560875192	3
2	23731	3.375618875192	2
2	23779	3.376565731294	3
2	23786	3.376599731294	2
2	23793	3.376649731294	3
2	23799	3.376707731294	2
2	23864	3.416526324835	3
2	23871	3.416560324835	2
2	23878	3.416710324835	3
2	23884	3.416768324835	2
2	23932	3.423704933332	3
2	23939	3.423738933332	2
2	23951	3.424088933332	3
2	23957	3.424146933332	2
2	24000	3.424653789434	3
2	24007	3.424687789434	2
2	24014	3.425097789434	3
2	24020	3.425155789434	2
2	24081	3.431478873955	3
2	24088	3.431512873955	2
2	24113	3.432435730057	3
2	24120	3.432469730057	2
2	24127	3.432559730057	3
2	24133	3.432617730057	2
2	24158	3.432792586159	3
2	24164	3.432850586159	2
2	24223	3.439915974286	3
2	24230	3.439949974286	2
2	24237	3.440299974286	3
2	24243	3.440357974286	2
2	24299	3.443620923501	3
2	24306	3.443654923501	2
2	24313	3.444204923501	3
2	24319	3.444262923501	2
2	24372	3.45155495971	3
2	24379	3.45158895971	2
2	24386	3.45203895971	3
2	24392	3.45209695971	2
2	24444	3.458781459239	3
2	24451	3.458815459239	2
2	24458	3.459225459239	3
2	24464	3.459283459239	2
2	24533	3.490602946744	3
2	24540	3.490636946744	2
2	24547	3.490946946744	3
2	24553	3.491004946744	2
2	24608	3.500186492709	3
2	24615	3.500220492709	2
2	24624	3.500750492709	3
2	24630	3.500808492709	2
2	24691	3.512476590057	3
2	24698	3.512510590057	2
2	24705	3.512840590057	3
2	24711	3.512898590057	2
2	24754	3.513445446159	3
2	24761	3.513479446159	2
2	24768	3.513729446159	3
2	24774	3.513787446159	2
2	24822	3.515285190882	3
2	24829	3.515319190882	2
2	24836	3.515629190882	3
2	24842	3.515687190882	2
2	24890	3.52137492885	3
2	24897	3.52140892885	2
2	24904	3.52203892885	3
2	24910	3.52209692885	2
2	24970	3.531307350711	3
2	24977	3.531341350711	2
2	24986	3.531611350711	3
2	24992	3.531669350711	2
2	25042	3.533878241773	3
2	25049	3.533912241773	2
2	25059	3.534242241773	3
2	25065	3.534300241773	2
2	25118	3.542157384635	3
2	25125	3.542191384635	2
2	25132	3.542821384635	3
2	25138	3.542879384635	2
2	25194	3.553694629906	3
2	25201	3.553728629906	2
2	25208	3.554258629906	3
2	25214	3.554316629906	2
2	25268	3.568176578161	3
2	25275	3.568210578161	2
2	25282	3.568880578161	3
2	25288	3.568938578161	2
2	25337	3.573424224433	3
2	25344	3.573458224433	2
2	25351	3.573748224433	3
2	25362	3.573806224433	2
2	25405	3.574673080535	3
2	25412	3.574707080535	2
2	25419	3.575377080535	3
2	25425	3.575435080535	2
2	25475	3.578783657139	3
2	25482	3.578817657139	2
2	25491	3.579347657139	3
2	25497	3.579405657139	2
2	25557	3.593403410453	3
2	25564	3.593437410453	2
2	25571	3.593987410453	3
2	25577	3.594045410453	2
2	25625	3.595112266555	3
2	25632	3.595146266555	2
2	25639	3.595756266555	3
2	25645	3.595814266555	2
2	25693	3.598623315514	3
2	25700	3.598657315514	2
2	25707	3.599107315514	3
2	25713	3.599165315514	2
2	25761	3.600766504031	3
2	25768	3.600800504031	2
2	25775	3.600970504031	3
2	25781	3.601028504031	2
2	25850	3.618597780233	3
2	25857	3.618631780233	2
2	25864	3.619121780233	3
2	25870	3.619179780233	2
2	25918	3.625956786491	3
2	25925	3.625990786491	2
2	25932	3.626060786491	3
2	25938	3.626118786491	2
2	26002	3.653061090781	3
2	26009	3.653095090781	2
2	26016	3.653525090781	3
2	26022	3.653583090781	2
2	26072	3.661920392328	3
2	26079	3.661954392328	2
2	26086	3.662304392328	3
2	26092	3.662362392328	2
2	26151	3.682258009423	3
2	26158	3.682292009423	2
2	26165	3.682722009423	3
2	26171	3.682780009423	2
2	26231	3.721625451572	3
2	26238	3.721659451572	2
2	26245	3.722109451572	3
2	26251	3.722167451572	2
2	26303	3.732721046609	3
2	26310	3.732755046609	2
2	26317	3.732905046609	3
2	26323	3.732963046609	2
2	26375	3.743222625636	3
2	26382	3.743256625636	2
2	26389	3.743386625636	3
2	26395	3.743444625636	2
2	26443	3.745884029428	3
2	26450	3.745918029428	2
2	26457	3.746468029428	3
2	26463	3.746526029428	2
2	26511	3.750697653623	3
2	26518	3.750731653623	2
2	26525	3.750841653623	3
2	26531	3.750899653623	2
2	26586	3.754654035862	3
2	26593	3.754688035862	2
2	26600	3.754858035862	3
2	26606	3.754916035862	2
2	26658	3.759453520347	3
2	26665	3.759487520347	2
2	26672	3.759757520347	3
2	26678	3.759815520347	2
2	26728	3.7608272171	3
2	26735	3.7608612171	2
2	26744	3.7610512171	3
2	26750	3.7611092171	2
2	26798	3.763827508527	3
2	26805	3.763861508527	2
2	26813	3.764431508527	3
2	26819	3.764489508527	2
2	26871	3.765216364629	3
2	26878	3.765250364629	2
2	26885	3.765460364629	3
2	26891	3.765518364629	2
2	26940	3.768425483979	3
2	26947	3.768459483979	2
2	26957	3.768809483979	3
2	26963	3.768867483979	2
2	27037	3.783132360002	3
2	27044	3.783166360002	2
2	27051	3.783516360002	3
2	27057	3.783574360002	2
2	27119	3.815435387694	3
2	27126	3.815469387694	2
2	27133	3.815739387694	3
2	27139	3.815797387694	2
2	27182	3.816644243796	3
2	27189	3.816678243796	2
2	27196	3.816788243796	3
2	27202	3.816846243796	2
2	27258	3.832184523349	3
2	27265	3.832218523349	2
2	27272	3.832628523349	3
2	27278	3.832686523349	2
2	27338	3.84304824745	3
2	27345	3.84308224745	2
2	27352	3.84361224745	3
2	27358	3.84367024745	2
2	27420	3.8622831139	3
2	27427	3.8623171139	2
2	27434	3.8627071139	3
2	27440	3.8627651139	2
2	27509	3.911795980405	3
2	27516	3.911829980405	2
2	27523	3.912219980405	3
2	27529	3.912277980405	2
2	27582	3.924907504357	3
2	27589	3.924941504357	2
2	27596	3.925131504357	3
2	27602	3.925189504357	2
2	27661	3.947623682359	3
2	27668	3.947657682359	2
2	27675	3.948127682359	3
2	27681	3.948185682359	2
2	27738	3.971820013386	3
2	27745	3.971854013386	2
2	27752	3.972144013386	3
2	27758	3.972202013386	2
3	0	0	0
4	0	0	0
4	0	0	0
4	0	0	2
4	20	0.007184819438	3
4	26	0.007242819438	2
4	58	0.00753367554	3
4	64	0.00758367554	2
4	106	0.007886531642	3
4	113	0.007920531642	2
4	120	0.008430531642	3
4	126	0.008812531642	2
4	169	0.009255387744	3
4	176	0.009289387744	2
4	257	0.045600485324	3
4	263	0.045982485324	2
4	306	0.046145341426	3
4	313	0.046179341426	2
4	325	0.047415255568	3
4	331	0.047797255568	2
4	374	0.04830011167	3
4	381	0.04833411167	2
4	393	0.05511576564	3
4	399	0.05549776564	2
4	444	0.056040621742	3
4	451	0.056074621742	2
4	473	0.063935338694	3
4	479	0.064317338694	2
4	522	0.064980194796	3
4	529	0.065014194796	2
4	547	0.074403193035	3
4	553	0.074785193035	2
4	598	0.075148049137	3
4	605	0.075182049137	2
4	629	0.091459569196	3
4	635	0.091841569196	2
4	678	0.092004425298	3
4	685	0.092038425298	2
4	697	0.094388151085	3
4	703	0.094770151085	2
4	746	0.095033007187	3
4	753	0.095067007187	2
4	765	0.099089400813	3
4	771	0.099471400813	2
4	814	0.099974256915	3
4	821	0.100008256915	2
4	838	0.102106703998	3
4	844	0.102488703998	2
4	890	0.1031715601	3
4	897	0.1032055601	2
4	924	0.115848371454	3
4	930	0.116230371454	2
4	973	0.116453227556	3
4	980	0.116487227556	2
4	992	0.116757227556	3
4	998	0.117139227556	2
4	1041	0.117582083658	3
4	1048	0.117616083658	2
4	1074	0.129920924288	3
4	1080	0.130302924288	2
4	1126	0.13096578039	3
4	1133	0.13099978039	2
4	1145	0.135346149011	3
4	1151	0.135728149011	2
4	1194	0.135971005113	3
4	1201	0.136005005113	2
4	1248	0.188800111165	3
4	1254	0.189182111165	2
4	1297	0.189964967267	3
4	1304	0.189998967267	2
4	1328	0.224646389867	3
4	1334	0.225028389867	2
4	1377	0.225251245969	3
4	1384	0.225285245969	2
4	1416	0.267529450335	3
4	1425	0.267911450335	2
4	1468	0.268114306437	3
4	1475	0.268148306437	2
4	1487	0.269066131519	3
4	1493	0.269448131519	2
4	1536	0.269670987621	3
4	1543	0.269704987621	2
4	1555	0.273658542905	3
4	1562	0.274040542905	2
4	1610	0.274483399007	3
4	1617	0.274517399007	2
4	1624	0.274907399007	3
4	1630	0.275289399007	2
4	1676	0.275812255109	3
4	1683	0.275846255109	2
4	1713	0.298492997993	3
4	1719	0.298874997993	2
4	1762	0.299477854095	3
4	1769	0.299511854095	2
4	1786	0.299781854095	3
4	1792	0.300163854095	2
4	1818	0.300258710197	3
4	1824	0.300640710197	2
4	1867	0.301123566299	3
4	1874	0.301157566299	2
4	1886	0.301587566299	3
4	1892	0.301969566299	2
4	1935	0.302192422401	3
4	1942	0.302226422401	2
4	1966	0.302625278503	3
4	1973	0.302659278503	2
4	1985	0.305033234037	3
4	1994	0.305415234037	2
4	2037	0.305838090139	3
4	2044	0.305872090139	2
4	2072	0.314690802835	3
4	2078	0.315072802835	2
4	2121	0.315275658937	3
4	2128	0.315309658937	2
4	2144	0.31659090091	3
4	2150	0.31697290091	2
4	2193	0.317355757012	3
4	2200	0.317389757012	2
4	2227	0.331189004751	3
4	2233	0.331571004751	2
4	2276	0.331773860853	3
4	2283	0.331807860853	2
4	2302	0.3419480952	3
4	2309	0.3423300952	2
4	2352	0.342492951302	3
4	2359	0.342526951302	2
4	2426	0.378575475083	3
4	2432	0.378957475083	2
4	2475	0.379600331185	3
4	2482	0.379634331185	2
4	2494	0.384635700056	3
4	2500	0.385017700056	2
4	2543	0.385600556158	3
4	2550	0.385634556158	2
4	2571	0.395082129972	3
4	2577	0.395464129972	2
4	2622	0.396066986074	3
4	2629	0.396100986074	2
4	2653	0.410585041198	3
4	2659	0.410967041198	2
4	2702	0.4116298973	3
4	2709	0.4116638973	2
4	2732	0.421773875763	3
4	2738	0.422155875763	2
4	2782	0.422498731865	3
4	2789	0.422532731865	2
4	2801	0.427577504002	3
4	2807	0.427959504002	2
4	2850	0.428342360104	3
4	2857	0.428376360104	2
4	2870	0.429324391743	3
4	2876	0.429706391743	2
4	2919	0.429889247845	3
4	2926	0.429923247845	2
4	2946	0.434568727908	3
4	2952	0.434950727908	2
4	2995	0.43517358401	3
4	3002	0.43520758401	2
4	3034	0.447238923212	3
4	3040	0.447620923212	2
4	3083	0.448363779314	3
4	3090	0.448397779314	2
4	3116	0.473937899099	3
4	3122	0.474319899099	2
4	3165	0.475062755201	3
4	3172	0.475096755201	2
4	3218	0.555122585338	3
4	3224	0.555504585338	2
4	3267	0.55590744144	3
4	3274	0.55594144144	2
4	3301	0.570486595784	3
4	3308	0.570868595784	2
4	3351	0.571071451886	3
4	3358	0.571105451886	2
4	3389	0.586198176152	3
4	3395	0.586580176152	2
4	3438	0.587063032254	3
4	3445	0.587097032254	2
4	3460	0.591282061368	3
4	3466	0.591664061368	2
4	3514	0.59214691747	3
4	3521	0.59218091747	2
4	3528	0.59245091747	3
4	3534	0.59283291747	2
4	3577	0.593155773572	3
4	3584	0.593189773572	2
4	3609	0.603328128921	3
4	3615	0.603710128921	2
4	3661	0.603932985023	3
4	3668	0.603966985023	2
4	3695	0.661877723577	3
4	3701	0.662259723577	2
4	3744	0.662522579679	3
4	3751	0.662556579679	2
4	3763	0.664704018458	3
4	3769	0.665086018458	2
4	3813	0.66566887456	3
4	3820	0.66570287456	2
4	3854	0.699372925561	3
4	3860	0.699754925561	2
4	3903	0.700477781663	3
4	3910	0.700511781663	2
4	3934	0.724916966695	3
4	3940	0.725298966695	2
4	3983	0.725821822797	3
4	3990	0.725855822797	2
4	4012	0.741260147387	3
4	4018	0.741642147387	2
4	4061	0.742325003489	3
4	4068	0.742359003489	2
4	4090	0.756310586628	3
4	4101	0.756692586628	2
4	4144	0.75691544273	3
4	4151	0.75694944273	2
4	4158	0.75731944273	3
4	4164	0.75770144273	2
4	4207	0.758024298832	3
4	4214	0.758058298832	2
4	4239	0.782163752701	3
4	4245	0.782545752701	2
4	4289	0.783088608803	3
4	4296	0.783122608803	2
4	4314	0.794061804216	3
4	4320	0.794443804216	2
4	4363	0.795086660318	3
4	4370	0.795120660318	2
4	4396	0.820050968386	3
4	4402	0.820432968386	2
4	4445	0.821035824488	3
4	4452	0.821069824488	2
4	4515	0.835801064302	3
4	4521	0.836183064302	2
4	4564	0.836485920404	3
4	4571	0.836519920404	2
4	4590	0.850721273637	3
4	4596	0.851103273637	2
4	4639	0.851426129739	3
4	4646	0.851460129739	2
4	4668	0.863191741276	3
4	4674	0.863573741276	2
4	4717	0.863996597378	3
4	4724	0.864030597378	2
4	4749	0.879687900722	3
4	4755	0.880069900722	2
4	4798	0.880652756824	3
4	4805	0.880686756824	2
4	4820	0.88968843961	3
4	4826	0.89007043961	2
4	4874	0.890693295712	3
4	4881	0.890727295712	2
4	4893	0.891288527089	3
4	4899	0.891670527089	2
4	4945	0.892293383191	3
4	4952	0.892327383191	2
4	4972	0.908683184406	3
4	4978	0.909065184406	2
4	5009	0.909728487405	3
4	5015	0.910110487405	2
4	5058	0.910313343507	3
4	5065	0.910347343507	2
4	5089	0.911026199609	3
4	5096	0.911060199609	2
4	5115	0.92026706835	3
4	5123	0.92064906835	2
4	5167	0.921051924452	3
4	5175	0.921085924452	2
4	5187	0.923573403594	3
4	5203	0.923955403594	2
4	5233	0.924190259696	3
4	5239	0.924572259696	2
4	5282	0.925075115798	3
4	5289	0.925109115798	2
4	5296	0.925299115798	3
4	5302	0.925681115798	2
4	5345	0.9260039719	3
4	5352	0.9260379719	2
4	5376	0.926656828002	3
4	5383	0.926690828002	2
4	5416	0.945363468274	3
4	5422	0.945745468274	2
4	5465	0.945948324376	3
4	5472	0.945982324376	2
4	5489	0.956554810537	3
4	5495	0.956936810537	2
4	5538	0.957359666639	3
4	5545	0.957393666639	2
4	5557	0.959717735891	3
4	5563	0.960099735891	2
4	5606	0.960342591993	3
4	5613	0.960376591993	2
4	5640	0.993757418212	3
4	5646	0.994139418212	2
4	5689	0.994402274314	3
4	5696	0.994436274314	2
4	5718	1.016094597928	3
4	5724	1.016476597928	2
4	5770	1.01701945403	3
4	5777	1.01705345403	2
4	5803	1.060010485897	3
4	5809	1.060392485897	2
4	5852	1.061035341999	3
4	5859	1.061069341999	2
4	5874	1.06552798171	3
4	5880	1.06590998171	2
4	5923	1.066132837812	3
4	5930	1.066166837812	2
4	5942	1.068054381168	3
4	5948	1.068436381168	2
4	5991	1.06899923727	3
4	5998	1.06903323727	2
4	6014	1.071102517708	3
4	6020	1.071484517708	2
4	6063	1.07196737381	3
4	6070	1.07200137381	2
4	6099	1.094885201801	3
4	6105	1.095267201801	2
4	6148	1.096050057903	3
4	6155	1.096084057903	2
4	6180	1.112734358853	3
4	6187	1.113116358853	2
4	6237	1.113639214955	3
4	6244	1.113673214955	2
4	6256	1.11443986499	3
4	6262	1.11482186499	2
4	6305	1.115504721092	3
4	6312	1.115538721092	2
4	6324	1.116347063146	3
4	6330	1.116729063146	2
4	6373	1.117031919248	3
4	6380	1.117065919248	2
4	6392	1.117473557713	3
4	6398	1.117855557713	2
4	6441	1.118078413815	3
4	6448	1.118112413815	2
4	6460	1.120851845983	3
4	6466	1.121233845983	2
4	6509	1.121436702085	3
4	6516	1.121470702085	2
4	6547	1.130632065954	3
4	6553	1.131014065954	2
4	6598	1.131256922056	3
4	6606	1.131290922056	2
4	6620	1.134413986299	3
4	6626	1.134795986299	2
4	6669	1.135338842401	3
4	6676	1.135372842401	2
4	6696	1.142180082748	3
4	6702	1.142562082748	2
4	6745	1.14332493885	3
4	6752	1.14335893885	2
4	6779	1.155976979401	3
4	6786	1.156358979401	2
4	6829	1.156641835503	3
4	6836	1.156675835503	2
4	6849	1.164521076188	3
4	6855	1.164903076188	2
4	6898	1.16506593229	3
4	6905	1.16509993229	2
4	6921	1.167298127851	3
4	6927	1.167680127851	2
4	6970	1.168442983953	3
4	6977	1.168476983953	2
4	7004	1.181022415298	3
4	7013	1.181404415298	2
4	7056	1.1819472714	3
4	7063	1.1819812714	2
4	7075	1.182741451555	3
4	7081	1.183123451555	2
4	7124	1.183666307657	3
4	7131	1.183700307657	2
4	7157	1.197812173367	3
4	7163	1.198194173367	2
4	7206	1.198357029469	3
4	7213	1.198391029469	2
4	7225	1.205854955886	3
4	7231	1.206236955886	2
4	7275	1.206639811988	3
4	7282	1.206673811988	2
4	7295	1.208150508437	3
4	7305	1.208532508437	2
4	7348	1.208775364539	3
4	7355	1.208809364539	2
4	7371	1.217905288771	3
4	7377	1.218287288771	2
4	7423	1.218790144873	3
4	7431	1.218824144873	2
4	7443	1.219768715797	3
4	7449	1.220150715797	2
4	7492	1.220573571899	3
4	7499	1.220607571899	2
4	7526	1.229066824351	3
4	7532	1.229448824351	2
4	7575	1.229871680453	3
4	7582	1.229905680453	2
4	7596	1.230228394019	3
4	7604	1.230610394019	2
4	7647	1.230953250121	3
4	7654	1.230987250121	2
4	7666	1.231557250121	3
4	7672	1.231939250121	2
4	7715	1.232542106223	3
4	7722	1.232576106223	2
4	7750	1.256427433234	3
4	7756	1.256809433234	2
4	7799	1.257092289336	3
4	7806	1.257126289336	2
4	7829	1.27085999864	3
4	7835	1.27124199864	2
4	7878	1.271604854742	3
4	7885	1.271638854742	2
4	7905	1.288338721179	3
4	7911	1.288720721179	2
4	7954	1.289303577281	3
4	7961	1.289337577281	2
4	7973	1.295691666517	3
4	7979	1.296073666517	2
4	8022	1.296356522619	3
4	8029	1.296390522619	2
4	8051	1.319091389459	3
4	8057	1.319473389459	2
4	8100	1.319656245561	3
4	8107	1.319690245561	2
4	8122	1.32938061069	3
4	8132	1.32976261069	2
4	8175	1.330025466792	3
4	8182	1.330059466792	2
4	8200	1.349663430147	3
4	8206	1.350045430147	2
4	8249	1.350568286249	3
4	8256	1.350602286249	2
4	8272	1.355762063596	3
4	8278	1.356144063596	2
4	8321	1.356306919698	3
4	8328	1.356340919698	2
4	8357	1.371372112726	3
4	8366	1.371754112726	2
4	8409	1.372396968828	3
4	8416	1.372430968828	2
4	8431	1.377338624162	3
4	8437	1.377720624162	2
4	8480	1.378183480264	3
4	8487	1.378217480264	2
4	8514	1.391021970685	3
4	8520	1.391403970685	2
4	8566	1.391966826787	3
4	8573	1.392000826787	2
4	8585	1.39576875789	3
4	8591	1.39615075789	2
4	8622	1.396345613992	3
4	8628	1.396727613992	2
4	8671	1.397350470094	3
4	8678	1.397384470094	2
4	8702	1.398043326196	3
4	8709	1.398077326196	2
4	8725	1.402892465421	3
4	8734	1.403274465421	2
4	8777	1.403697321523	3
4	8784	1.403731321523	2
4	8798	1.406375746402	3
4	8805	1.406757746402	2
4	8849	1.407260602504	3
4	8856	1.407294602504	2
4	8871	1.408061455005	3
4	8878	1.408443455005	2
4	8922	1.409126311107	3
4	8929	1.409160311107	2
4	8941	1.409630311107	3
4	8947	1.410012311107	2
4	8990	1.410435167209	3
4	8997	1.410469167209	2
4	9017	1.41516109102	3
4	9023	1.41554309102	2
4	9069	1.415805947122	3
4	9076	1.415839947122	2
4	9107	1.427379701966	3
4	9113	1.427761701966	2
4	9156	1.428364558068	3
4	9163	1.428398558068	2
4	9182	1.446803634763	3
4	9188	1.447185634763	2
4	9231	1.447648490865	3
4	9238	1.447682490865	2
4	9250	1.450192995307	3
4	9256	1.450574995307	2
4	9299	1.450937851409	3
4	9306	1.450971851409	2
4	9322	1.458933526183	3
4	9328	1.459315526183	2
4	9372	1.459978382285	3
4	9379	1.460012382285	2
4	9440	1.468641282525	3
4	9446	1.469023282525	2
4	9489	1.469286138627	3
4	9497	1.469320138627	2
4	9532	1.510289023491	3
4	9538	1.510671023491	2
4	9581	1.511113879593	3
4	9588	1.511147879593	2
4	9611	1.551963291962	3
4	9617	1.552345291962	2
4	9660	1.552528148064	3
4	9667	1.552562148064	2
4	9680	1.555072639033	3
4	9686	1.555454639033	2
4	9729	1.555897495135	3
4	9736	1.555931495135	2
4	9748	1.558262437621	3
4	9754	1.558644437621	2
4	9802	1.559187293723	3
4	9809	1.559221293723	2
4	9816	1.559391293723	3
4	9822	1.559773293723	2
4	9865	1.560216149825	3
4	9872	1.560250149825	2
4	9906	1.584600406785	3
4	9912	1.584982406785	2
4	9955	1.585585262887	3
4	9962	1.585619262887	2
4	9990	1.601177915743	3
4	9996	1.601559915743	2
4	10039	1.602082771845	3
4	10046	1.602116771845	2
4	10063	1.617268736438	3
4	10072	1.617650736438	2
4	10115	1.61839359254	3
4	10122	1.61842759254	2
4	10141	1.629330124221	3
4	10147	1.629712124221	2
4	10190	1.630334980323	3
4	10197	1.630368980323	2
4	10218	1.643760812358	3
4	10224	1.644142812358	2
4	10272	1.64470566846	3
4	10279	1.64473966846	2
4	10286	1.64490966846	3
4	10292	1.64529166846	2
4	10335	1.645634524562	3
4	10342	1.645668524562	2
4	10354	1.646626405035	3
4	10360	1.647008405035	2
4	10403	1.647351261137	3
4	10410	1.647385261137	2
4	10422	1.6483153469	3
4	10428	1.6486973469	2
4	10471	1.648940203002	3
4	10478	1.648974203002	2
4	10493	1.654106249482	3
4	10501	1.654488249482	2
4	10546	1.654811105584	3
4	10553	1.654845105584	2
4	10577	1.663605558617	3
4	10583	1.663987558617	2
4	10626	1.664150414719	3
4	10633	1.664184414719	2
4	10653	1.674370194786	3
4	10659	1.674752194786	2
4	10702	1.674975050888	3
4	10709	1.675009050888	2
4	10721	1.680635530439	3
4	10727	1.681017530439	2
4	10770	1.681540386541	3
4	10777	1.681574386541	2
4	10789	1.684439258998	3
4	10797	1.684821258998	2
4	10842	1.6851441151	3
4	10849	1.6851781151	2
4	10861	1.690603486357	3
4	10867	1.690985486357	2
4	10912	1.691288342459	3
4	10919	1.691322342459	2
4	10943	1.699062878214	3
4	10949	1.699444878214	2
4	10992	1.699987734316	3
4	10999	1.700021734316	2
4	11024	1.7157270055	3
4	11030	1.7161090055	2
4	11078	1.716331861602	3
4	11085	1.716365861602	2
4	11092	1.716795861602	3
4	11098	1.717177861602	2
4	11141	1.717380717704	3
4	11148	1.717414717704	2
4	11160	1.723416015374	3
4	11166	1.723798015374	2
4	11209	1.724360871476	3
4	11216	1.724394871476	2
4	11236	1.728557307719	3
4	11242	1.728939307719	2
4	11285	1.729182163821	3
4	11292	1.729216163821	2
4	11313	1.74224982773	3
4	11319	1.74263182773	2
4	11362	1.743034683832	3
4	11369	1.743068683832	2
4	11395	1.769053505943	3
4	11401	1.769435505943	2
4	11444	1.770178362045	3
4	11451	1.770212362045	2
4	11463	1.773040633426	3
4	11469	1.773422633426	2
4	11512	1.773805489528	3
4	11519	1.773839489528	2
4	11545	1.787909071515	3
4	11551	1.788291071515	2
4	11594	1.788693927617	3
4	11601	1.788727927617	2
4	11634	1.818538789438	3
4	11640	1.818920789438	2
4	11683	1.81956364554	3
4	11690	1.81959764554	2
4	11702	1.81990764554	3
4	11708	1.82028964554	2
4	11751	1.821052501642	3
4	11758	1.821086501642	2
4	11775	1.829089538174	3
4	11781	1.829471538174	2
4	11826	1.829714394276	3
4	11833	1.829748394276	2
4	11849	1.83218055657	3
4	11855	1.83256255657	2
4	11901	1.833325412672	3
4	11908	1.833359412672	2
4	11934	1.87512257728	3
4	11940	1.87550457728	2
4	11983	1.875987433382	3
4	11990	1.876021433382	2
4	12007	1.88367805503	3
4	12013	1.88406005503	2
4	12059	1.884742911132	3
4	12066	1.884776911132	2
4	12082	1.890679577098	3
4	12088	1.891061577098	2
4	12131	1.8916044332	3
4	12138	1.8916384332	2
4	12150	1.891822990892	3
4	12156	1.892204990892	2
4	12199	1.892927846994	3
4	12206	1.892961846994	2
4	12223	1.898160718781	3
4	12232	1.898542718781	2
4	12275	1.898845574883	3
4	12282	1.898879574883	2
4	12316	1.923614572263	3
4	12322	1.923996572263	2
4	12365	1.924219428365	3
4	12372	1.924253428365	2
4	12387	1.932968992609	3
4	12393	1.933350992609	2
4	12436	1.933613848711	3
4	12443	1.933647848711	2
4	12483	1.974381114161	3
4	12489	1.974763114161	2
4	12532	1.975005970263	3
4	12539	1.975039970263	2
4	12551	1.981476747588	3
4	12557	1.981858747588	2
4	12600	1.98256160369	3
4	12607	1.98259560369	2
4	12619	1.983572281146	3
4	12625	1.983954281146	2
4	12668	1.984557137248	3
4	12675	1.984591137248	2
4	12694	1.990535756202	3
4	12700	1.990917756202	2
4	12743	1.991380612304	3
4	12750	1.991414612304	2
4	12767	1.993946393124	3
4	12775	1.994328393124	2
4	12820	1.994771249226	3
4	12827	1.994805249226	2
4	12848	2.002694473781	3
4	12854	2.003076473781	2
4	12900	2.003679329883	3
4	12907	2.003713329883	2
4	12930	2.018854001243	3
4	12936	2.019236001243	2
4	12979	2.019478857345	3
4	12986	2.019512857345	2
4	12998	2.023210567096	3
4	13004	2.023592567096	2
4	13047	2.024135423198	3
4	13054	2.024169423198	2
4	13071	2.028607127511	3
4	13077	2.028989127511	2
4	13120	2.029171983613	3
4	13127	2.029205983613	2
4	13143	2.030910622334	3
4	13149	2.031292622334	2
4	13195	2.031775478436	3
4	13202	2.031809478436	2
4	13229	2.044596916034	3
4	13235	2.044978916034	2
4	13278	2.045221772136	3
4	13285	2.045255772136	2
4	13297	2.048605817031	3
4	13303	2.048987817031	2
4	13346	2.049690673133	3
4	13353	2.049724673133	2
4	13372	2.057277043881	3
4	13378	2.057659043881	2
4	13424	2.058401899983	3
4	13431	2.058435899983	2
4	13453	2.062217450815	3
4	13459	2.062599450815	2
4	13502	2.063342306917	3
[...]
78	18796	2.69315504717	1000
78	18838	2.696838775761	1000
78	18877	2.711875712889	1000
78	18880	2.713955763144	1000
78	18884	2.725123845823	1000
78	18956	2.7381872399	1000
78	18963	2.746020163347	1000
78	19181	2.775582098897	1000
78	19257	2.786246547228	1000
78	19265	2.791858036155	1000
78	19268	2.797161234421	1000
78	19706	2.840465094624	1000
78	20208	2.880091302053	1000
78	20217	2.888920821977	1000
78	20260	2.894579970622	1000
78	20371	2.912261703942	1000
78	20510	2.91767142167	1000
78	20513	2.918738394018	1000
78	20592	2.925972124914	1000
78	20595	2.930450761654	1000
78	20670	2.956787966239	1000
78	20673	2.960476373512	1000
78	20748	2.97075945073	1000
78	21186	3.003921168017	1000
78	21267	3.012662135722	1000
78	21415	3.03370610393	1000
78	21459	3.046114173803	1000
78	21564	3.056656119689	1000
78	21718	3.088967318101	1000
78	21721	3.092302274663	1000
78	21796	3.108061710927	1000
78	21799	3.114041176734	1000
78	21802	3.120010816463	1000
78	21806	3.138998904266	1000
78	21877	3.141944538052	1000
78	21881	3.146068642672	1000
78	21888	3.153043130309	1000
78	21891	3.155830794679	1000
78	21896	3.168953027205	1000
78	21899	3.180071470131	1000
78	22041	3.18828449743	1000
78	22189	3.196191399992	1000
78	22478	3.238301375302	1000
78	22485	3.240060524813	1000
78	22567	3.254997669759	1000
78	22850	3.279839377817	1000
78	22862	3.288520729818	1000
78	22870	3.291636032774	1000
78	23013	3.305202513136	1000
78	23016	3.305742173151	1000
78	23316	3.331137579327	1000
78	23523	3.341796988553	1000
78	23535	3.344915571978	1000
78	23612	3.362991443925	1000
78	23615	3.365451383614	1000
78	24060	3.431167209831	1000
78	24189	3.433837877475	1000
78	24497	3.475603054519	1000
78	24500	3.476757592449	1000
78	24503	3.479882693283	1000
78	24579	3.493760702477	1000
78	25054	3.534168042223	1000
78	25812	3.608258407098	1000
78	25973	3.650008737473	1000
78	26119	3.665115489535	1000
78	26194	3.688026495414	1000
78	26203	3.699984530699	1000
78	26554	3.752948391949	1000
78	26952	3.768596505865	1000
78	27009	3.780657540539	1000
78	27080	3.785514082922	1000
78	27305	3.838349055613	1000
78	27388	3.855769677895	1000
78	27391	3.857752180489	1000
78	27463	3.869266960231	1000
78	27471	3.875189637495	1000
78	27475	3.886041907017	1000
78	27478	3.887789826995	1000
78	27481	3.903076814406	1000
78	27625	3.934223391678	1000
78	27633	3.937637521659	1000
78	27710	3.969206619653	1000
78	27781	3.973087775758	1000
79	193	0.022315250545	1008
79	198	0.026943233711	32
79	220	0.028301714653	1008
79	247	0.040837064753	1008
79	464	0.062286916714	1008
79	611	0.077589649141	1008
79	619	0.085289985565	1008
79	876	0.103149043474	1008
79	911	0.110043432355	1008
79	1054	0.124396725948	1008
79	1057	0.126053070209	1008
79	1105	0.13060061378	1008
79	1208	0.13752850551	1008
79	1220	0.149624736455	1008
79	1225	0.162329649036	1008
79	1229	0.169864948008	1008
79	1236	0.181587316897	1008
79	1239	0.186165987017	1008
79	1315	0.204245611016	1008
79	1318	0.205471349594	1008
79	1390	0.227309176625	1008
79	1398	0.235860179745	1008
79	1401	0.247001921708	1008
79	1404	0.263132864974	1008
79	1407	0.263612580563	1008
79	1422	0.267601503455	1008
79	1655	0.275469258867	1008
79	1991	0.305296247151	1008
79	2211	0.32648514002	1008
79	2218	0.32991739169	1008
79	2289	0.340218107304	1008
79	2365	0.343247147219	1008
79	2368	0.344550877438	32
79	2558	0.389363226218	1008
79	2636	0.403515821422	1008
79	2644	0.406660508322	1008
79	2715	0.413277260204	1008
79	2718	0.417584386794	1008
79	2933	0.430536229178	1008
79	3017	0.443244341803	1008
79	3023	0.445071865306	1008
79	3097	0.451941403923	1008
79	3105	0.459070285903	1008
79	3183	0.489301671464	1008
79	3186	0.489761066419	1008
79	3189	0.498280081546	1008
79	3192	0.500470544769	1008
79	3196	0.518588426236	1008
79	3201	0.538349055452	1008
79	3204	0.544623495813	1008
79	3207	0.545483600425	1008
79	3281	0.55982886322	1008
79	3284	0.560030076412	1008
79	3287	0.563178028122	1008
79	3365	0.580551557106	1008
79	3372	0.581221997741	1008
79	3376	0.583899668238	1008
79	3380	0.586149895652	1008
79	3451	0.589191964114	1008
79	3640	0.603817525754	1008
79	3678	0.617456683697	1008
79	3683	0.641422747307	1008
79	3836	0.681477959313	1008
79	3839	0.695171614147	1008
79	3842	0.696241465627	1008
79	3845	0.696938333972	1008
79	3916	0.704967698656	1008
79	3923	0.716504973515	1008
79	3996	0.725888682166	1008
79	4003	0.739452948717	1008
79	4076	0.750661672708	1008
79	4230	0.779088690758	1008
79	4377	0.8004264108	1008
79	4384	0.814383770201	1008
79	4387	0.817296392125	1008
79	4459	0.823883712532	32
79	4652	0.852630155454	1008
79	4655	0.855106451377	1008
79	4736	0.874883365455	1008
79	4739	0.877190502745	1008
79	4924	0.891818494887	1008
79	5104	0.919904398415	1008
79	5229	0.92405063342	1008
79	5398	0.934645199959	1008
79	5627	0.980173485356	1008
79	5630	0.992119049076	1008
79	5756	1.017004186633	1008
79	5788	1.035197013791	1008
79	5791	1.043006581899	1008
79	5794	1.051261903641	1008
79	5865	1.063504148696	1008
79	6089	1.084223749253	1008
79	6161	1.102887281577	1008
79	6164	1.103902235478	1008
79	6171	1.110177847322	1008
79	6212	1.113349092892	1008
79	6215	1.113517651987	1008
79	6522	1.122666736198	1008
79	6682	1.138248083825	1008
79	6762	1.1456093529	1008
79	6766	1.149610192961	1008
79	6984	1.170654768701	1008
79	7010	1.181283896453	1008
79	7137	1.188674927858	1008
79	7148	1.196282113376	1008
79	7505	1.221999309781	1008
79	7508	1.223907453983	1008
79	7512	1.225997838582	1008
79	7741	1.254116717743	1008
79	7817	1.268171882082	1008
79	7820	1.268501187287	1008
79	7896	1.284275452464	1008
79	8113	1.322654512185	1008
79	8263	1.351396669658	1008
79	8334	1.358513648826	1008
79	8341	1.362914110672	1008
79	8344	1.364444993558	1008
79	8363	1.371486219238	1008
79	8422	1.373944446444	1008
79	8497	1.383165997373	1008
79	8501	1.384410047413	1008
79	8545	1.391675252793	1008
79	8731	1.403112723252	1008
79	9006	1.413527065691	1008
79	9048	1.415661586785	1008
79	9390	1.465848124083	32
79	9506	1.470235473007	1008
79	9510	1.476316151574	1008
79	9521	1.492420388468	1008
79	9594	1.512667007933	1008
79	9597	1.516888216558	1008
79	9894	1.574844859534	1008
79	9897	1.580563049386	1008
79	9968	1.586189587254	1008
79	9971	1.588452363945	1008
79	9979	1.595610962948	1008
79	10069	1.617541278162	1008
79	10128	1.626339982226	1008
79	10209	1.643012284309	1008
79	10484	1.650226140066	1008
79	10925	1.691453620776	1008
79	10934	1.697055992899	1008
79	11010	1.705988532036	1008
79	11375	1.746967630865	1008
79	11382	1.759195069038	1008
79	11386	1.768733543071	1008
79	11525	1.778148223434	1008
79	11534	1.783743787751	1008
79	11608	1.792817782724	1008
79	11611	1.794819331821	1008
79	11619	1.801470553502	1008
79	11625	1.813152224026	1008
79	11764	1.827241065668	1008
79	11880	1.833150362185	1008
79	11925	1.862702093418	1008
79	11998	1.882865482219	1008
79	12031	1.884093103591	1008
79	12229	1.898301436427	1008
79	12288	1.900020420872	1008
79	12303	1.909460618258	1008
79	12306	1.92112520588	1008
79	12378	1.926849178891	1008
79	12457	1.948105418723	1008
79	12460	1.948545807566	1008
79	12463	1.95085095448	1008
79	12468	1.9567654997	1008
79	12471	1.961046094732	1008
79	12474	1.963145017853	1008
79	12685	1.989235812739	1008
79	12879	2.003542839644	1008
79	12921	2.016941062527	1008
79	13060	2.025974298351	1008
79	13174	2.031676811616	1008
79	13220	2.042891776612	1008
79	13359	2.050684705334	1008
79	13403	2.058001851408	1008
79	13440	2.059720530666	1008
79	13444	2.06094231837	1008
79	13515	2.065990330439	1008
79	13522	2.072065498044	1008
79	14181	2.158867119478	1008
79	14625	2.20806633099	1008
79	14629	2.215907770107	1008
79	14981	2.262829459343	1008
79	14984	2.263096083167	1008
79	15136	2.268731379553	1008
79	15160	2.277969722783	1008
79	15221	2.284207586122	1008
79	15228	2.2941024468	1008
79	15300	2.300225556604	1008
79	15419	2.312312828865	1008
79	15528	2.331407256025	1008
79	15531	2.333944310125	1008
79	15534	2.334176007387	1008
79	15538	2.34293747163	1008
79	15684	2.358235689061	1008
79	15825	2.361930954608	1008
79	15841	2.379748723497	1008
79	16271	2.407057363294	1008
79	16418	2.424146935482	1008
79	16493	2.427774873139	1008
79	16500	2.431672674795	1008
79	16779	2.440590302647	1008
79	16940	2.466224629763	1008
79	17376	2.498276929445	1008
79	17382	2.50449327813	1008
79	17677	2.545122168965	1008
79	17758	2.567435047834	1008
79	17762	2.587882227087	1008
79	18329	2.632354114735	1008
79	18417	2.647009476858	1008
79	18424	2.652214671132	1008
79	18717	2.679554388046	1008
79	18797	2.69315504717	1008
79	18839	2.696838775761	1008
79	18878	2.711875712889	1008
79	18881	2.713955763144	1008
79	18885	2.725123845823	1008
79	18957	2.7381872399	1008
79	18964	2.746020163347	1008
79	19182	2.775582098897	1008
79	19258	2.786246547228	1008
79	19266	2.791858036155	1008
79	19269	2.797161234421	1008
79	19707	2.840465094624	1008
79	20209	2.880091302053	1008
79	20218	2.888920821977	1008
79	20261	2.894579970622	1008
79	20372	2.912261703942	1008
79	20511	2.91767142167	1008
79	20514	2.918738394018	1008
79	20593	2.925972124914	1008
79	20596	2.930450761654	1008
79	20671	2.956787966239	1008
79	20674	2.960476373512	1008
79	20749	2.97075945073	1008
79	21187	3.003921168017	1008
79	21268	3.012662135722	1008
79	21416	3.03370610393	1008
79	21460	3.046114173803	1008
79	21565	3.056656119689	1008
79	21719	3.088967318101	1008
79	21722	3.092302274663	1008
79	21797	3.108061710927	1008
79	21800	3.114041176734	1008
79	21803	3.120010816463	1008
79	21807	3.138998904266	1008
79	21878	3.141944538052	1008
79	21882	3.146068642672	1008
79	21889	3.153043130309	1008
79	21892	3.155830794679	1008
79	21897	3.168953027205	1008
79	21900	3.180071470131	1008
79	22042	3.18828449743	1008
79	22190	3.196191399992	1008
79	22479	3.238301375302	1008
79	22486	3.240060524813	1008
79	22568	3.254997669759	1008
79	22851	3.279839377817	1008
79	22863	3.288520729818	1008
79	22871	3.291636032774	1008
79	23014	3.305202513136	1008
79	23017	3.305742173151	1008
79	23317	3.331137579327	1008
79	23524	3.341796988553	1008
79	23536	3.344915571978	1008
79	23613	3.362991443925	1008
79	23616	3.365451383614	1008
79	24061	3.431167209831	1008
79	24190	3.433837877475	1008
79	24498	3.475603054519	1008
79	24501	3.476757592449	1008
79	24504	3.479882693283	1008
79	24580	3.493760702477	1008
79	25055	3.534168042223	1008
79	25813	3.608258407098	1008
79	25974	3.650008737473	1008
79	26120	3.665115489535	1008
79	26195	3.688026495414	1008
79	26204	3.699984530699	1008
79	26555	3.752948391949	1008
79	26953	3.768596505865	1008
79	27010	3.780657540539	1008
79	27081	3.785514082922	1008
79	27306	3.838349055613	1008
79	27389	3.855769677895	1008
79	27392	3.857752180489	1008
79	27464	3.869266960231	1008
79	27472	3.875189637495	1008
79	27476	3.886041907017	1008
79	27479	3.887789826995	1008
79	27482	3.903076814406	1008
79	27626	3.934223391678	1008
79	27634	3.937637521659	1008
79	27711	3.969206619653	1008
79	27782	3.973087775758	1008
80	201	0.026943233711	60
80	2371	0.344550877438	60
80	4462	0.823883712532	60
80	9393	1.465848124083	60
81	201	0.026943233711	88
81	2371	0.344550877438	88
81	4462	0.823883712532	88
81	9393	1.465848124083	88
82	201	0.026943233711	1
82	203	0.026943233711	0
82	2371	0.344550877438	1
82	2373	0.344550877438	0
82	4462	0.823883712532	1
82	4464	0.823883712532	0
82	9393	1.465848124083	1
82	9395	1.465848124083	0
83	201	0.026943233711	13
83	2371	0.344550877438	13
83	4462	0.823883712532	20
83	9393	1.465848124083	14
84	201	0.026943233711	1
84	202	0.026943233711	0
84	2371	0.344550877438	1
84	2372	0.344550877438	0
84	4462	0.823883712532	1
84	4463	0.823883712532	0
84	9393	1.465848124083	1
84	9394	1.465848124083	0
85	203	0.026943233711	88
85	2373	0.344550877438	88
85	4464	0.823883712532	88
85	9395	1.465848124083	88
86	203	0.026943233711	0
86	2373	0.344550877438	0
86	4464	0.823883712532	0
86	9395	1.465848124083	0
87	203	0.026943233711	1
87	209	0.027001233711	0
87	2373	0.344550877438	1
87	2379	0.344608877438	0
87	4464	0.823883712532	1
87	4470	0.823941712532	0
87	9395	1.465848124083	1
87	9401	1.465906124083	0
88	203	0.026943233711	24000000
88	2373	0.344550877438	24000000
88	4464	0.823883712532	24000000
88	9395	1.465848124083	24000000
89	203	0.026943233711	88
89	2373	0.344550877438	88
89	4464	0.823883712532	88
89	9395	1.465848124083	88
90	203	0.026943233711	1
90	209	0.027001233711	0
90	2373	0.344550877438	1
90	2379	0.344608877438	0
90	4464	0.823883712532	1
90	4470	0.823941712532	0
90	9395	1.465848124083	1
90	9401	1.465906124083	0
91	204	0.026943233711	1
91	205	0.026943233711	2
91	209	0.027001233711	1
91	210	0.027001233711	0
91	2374	0.344550877438	1
91	2375	0.344550877438	2
91	2379	0.344608877438	1
91	2380	0.344608877438	0
91	4465	0.823883712532	1
91	4466	0.823883712532	2
91	4470	0.823941712532	1
91	4471	0.823941712532	0
91	9396	1.465848124083	1
91	9397	1.465848124083	2
91	9401	1.465906124083	1
91	9402	1.465906124083	0
92	209	0.027001233711	88
92	2379	0.344608877438	88
92	4470	0.823941712532	88
92	9401	1.465906124083	88
93	209	0.027001233711	88
93	2379	0.344608877438	88
93	4470	0.823941712532	88
93	9401	1.465906124083	88
94	209	0.027001233711	88
94	2379	0.344608877438	88
94	4470	0.823941712532	88
94	9401	1.465906124083	88
95	209	0.027001233711	88
95	2379	0.344608877438	88
95	4470	0.823941712532	88
95	9401	1.465906124083	88
96	209	0.027001233711	5.8e-005
96	2379	0.344608877438	5.8e-005
96	4470	0.823941712532	5.8e-005
96	9401	1.465906124083	5.8e-005
97	212	0.027001654665	88
97	2382	0.344609298392	88
97	4473	0.823942133486	88
97	9404	1.465906545037	88
98	212	0.027001654665	88
98	2382	0.344609298392	88
98	4473	0.823942133486	88
98	9404	1.465906545037	88
99	212	0.027001654665	88
99	2382	0.344609298392	88
99	4473	0.823942133486	88
99	9404	1.465906545037	88
100	212	0.027001654665	88
100	2382	0.344609298392	88
100	4473	0.823942133486	88
100	9404	1.465906545037	88
101	212	0.027001654665	88
101	2382	0.344609298392	88
101	4473	0.823942133486	88
101	9404	1.465906545037	88
102	212	0.027001654665	60
102	2382	0.344609298392	60
102	4473	0.823942133486	60
102	9404	1.465906545037	60
103	215	0.027001654665	32
103	2385	0.344609298392	32
103	4476	0.823942133486	32
103	9407	1.465906545037	32
104	215	0.027001654665	1
104	2385	0.344609298392	2
104	4476	0.823942133486	3
104	9407	1.465906545037	4
105	223	0.028688635473	32
105	2390	0.345190307942	32
105	4481	0.828729387766	32
105	9412	1.467980829388	32
106	226	0.028688635473	60
106	2393	0.345190307942	60
106	4484	0.828729387766	60
106	9415	1.467980829388	60
107	226	0.028688635473	88
107	2393	0.345190307942	88
107	4484	0.828729387766	88
107	9415	1.467980829388	88
108	226	0.028688635473	1
108	228	0.028688635473	0
108	2393	0.345190307942	1
108	2395	0.345219298392	0
108	4484	0.828729387766	1
108	4486	0.828729387766	0
108	9415	1.467980829388	1
108	9417	1.467980829388	0
109	226	0.028688635473	19
109	2393	0.345190307942	28
109	4484	0.828729387766	4
109	9415	1.467980829388	5
110	226	0.028688635473	1
110	227	0.028688635473	0
110	2393	0.345190307942	1
110	2394	0.345219298392	0
110	4484	0.828729387766	1
110	4485	0.828729387766	0
110	9415	1.467980829388	1
110	9416	1.467980829388	0
111	228	0.028688635473	88
111	2395	0.345219298392	88
111	4486	0.828729387766	88
111	9417	1.467980829388	88
112	228	0.028688635473	0
112	2395	0.345219298392	2.899045e-005
112	4486	0.828729387766	0
112	9417	1.467980829388	0
113	228	0.028688635473	1
113	234	0.028746635473	0
113	2395	0.345219298392	1
113	2401	0.345277298392	0
113	4486	0.828729387766	1
113	4492	0.828787387766	0
113	9417	1.467980829388	1
113	9423	1.468038829388	0
114	228	0.028688635473	24000000
114	2395	0.345219298392	24000000
114	4486	0.828729387766	24000000
114	9417	1.467980829388	24000000
115	228	0.028688635473	88
115	2395	0.345219298392	88
115	4486	0.828729387766	88
115	9417	1.467980829388	88
116	228	0.028688635473	1
116	234	0.028746635473	0
116	2395	0.345219298392	1
116	2401	0.345277298392	0
116	4486	0.828729387766	1
116	4492	0.828787387766	0
116	9417	1.467980829388	1
116	9423	1.468038829388	0
117	229	0.028688635473	1
117	230	0.028688635473	2
117	234	0.028746635473	1
117	235	0.028746635473	0
117	2396	0.345219298392	1
117	2397	0.345219298392	2
117	2401	0.345277298392	1
117	2402	0.345277298392	0
117	4487	0.828729387766	1
117	4488	0.828729387766	2
117	4492	0.828787387766	1
117	4493	0.828787387766	0
117	9418	1.467980829388	1
117	9419	1.467980829388	2
117	9423	1.468038829388	1
117	9424	1.468038829388	0
118	234	0.028746635473	88
118	2401	0.345277298392	88
118	4492	0.828787387766	88
118	9423	1.468038829388	88
119	234	0.028746635473	88
119	2401	0.345277298392	88
119	4492	0.828787387766	88
119	9423	1.468038829388	88
120	234	0.028746635473	88
120	2401	0.345277298392	88
120	4492	0.828787387766	88
120	9423	1.468038829388	88
121	234	0.028746635473	88
121	2401	0.345277298392	88
121	4492	0.828787387766	88
121	9423	1.468038829388	88
122	234	0.028746635473	5.8e-005
122	2401	0.345277298392	5.8e-005
122	4492	0.828787387766	5.8e-005
122	9423	1.468038829388	5.8e-005
123	237	0.028747056427	88
123	2404	0.345277719346	88
123	4495	0.82878780872	88
123	9426	1.468039250342	88
124	237	0.028747056427	88
124	2404	0.345277719346	88
124	4495	0.82878780872	88
124	9426	1.468039250342	88
125	237	0.028747056427	88
125	2404	0.345277719346	88
125	4495	0.82878780872	88
125	9426	1.468039250342	88
126	237	0.028747056427	88
126	2404	0.345277719346	88
126	4495	0.82878780872	88
126	9426	1.468039250342	88
127	237	0.028747056427	88
127	2404	0.345277719346	88
127	4495	0.82878780872	88
127	9426	1.468039250342	88
128	237	0.028747056427	60
128	2404	0.345277719346	60
128	4495	0.82878780872	60
128	9426	1.468039250342	60
129	240	0.028747056427	32
129	2407	0.345277719346	32
129	4498	0.82878780872	32
129	9429	1.468039250342	32
130	240	0.028747056427	1
130	2407	0.345277719346	2
130	4498	0.82878780872	3
130	9429	1.468039250342	4
vector 131 Network2.host1.app[0] throughput:vector ETV
attr source throughput(packetReceived)
attr title "throughput, vector"
attr unit bps
vector 132 Network2.host2.app[0] throughput:vector ETV
attr source throughput(packetReceived)
attr title "throughput, vector"
attr unit bps
vector 133 Network2.host3.app[0] throughput:vector ETV
attr source throughput(packetReceived)
attr title "throughput, vector"
attr unit bps
131	27793	0.1	0
131	27793	0.2	0
131	27793	0.3	0
131	27793	0.4	0
131	27793	0.5	0
131	27793	0.6	0
131	27793	0.7	0
131	27793	0.8	0
131	27793	0.9	0
131	27793	1	0
131	27793	1.1	0
131	27793	1.2	0
131	27793	1.3	0
131	27793	1.4	0
131	27793	1.5	0
131	27793	1.6	0
131	27793	1.7	0
131	27793	1.8	0
131	27793	1.9	0
131	27793	2	0
131	27793	2.1	0
131	27793	2.2	0
131	27793	2.3	0
131	27793	2.4	0
131	27793	2.5	0
131	27793	2.6	0
131	27793	2.7	0
131	27793	2.8	0
131	27793	2.9	0
131	27793	3	0
131	27793	3.1	0
131	27793	3.2	0
131	27793	3.3	0
131	27793	3.4	0
131	27793	3.5	0
131	27793	3.6	0
131	27793	3.7	0
131	27793	3.8	0
131	27793	3.9	0
131	27793	3.976963366941	0
132	27793	0.1	0
132	27793	0.2	0
132	27793	0.3	0
132	27793	0.4	0
132	27793	0.5	0
132	27793	0.6	0
132	27793	0.7	0
132	27793	0.8	0
132	27793	0.9	0
132	27793	1	0
132	27793	1.1	0
132	27793	1.2	0
132	27793	1.3	0
132	27793	1.4	0
132	27793	1.5	0
132	27793	1.6	0
132	27793	1.7	0
132	27793	1.8	0
132	27793	1.9	0
132	27793	2	0
132	27793	2.1	0
132	27793	2.2	0
132	27793	2.3	0
132	27793	2.4	0
132	27793	2.5	0
132	27793	2.6	0
132	27793	2.7	0
132	27793	2.8	0
132	27793	2.9	0
132	27793	3	0
132	27793	3.1	0
132	27793	3.2	0
132	27793	3.3	0
132	27793	3.4	0
132	27793	3.5	0
132	27793	3.6	0
132	27793	3.7	0
132	27793	3.8	0
132	27793	3.9	0
132	27793	3.976963366941	0
133	27793	0.1	0
133	27793	0.2	0
133	27793	0.3	0
133	27793	0.4	0
133	27793	0.5	0
133	27793	0.6	0
133	27793	0.7	0
133	27793	0.8	0
133	27793	0.9	0
133	27793	1	0
133	27793	1.1	0
133	27793	1.2	0
133	27793	1.3	0
133	27793	1.4	0
133	27793	1.5	0
133	27793	1.6	0
133	27793	1.7	0
133	27793	1.8	0
133	27793	1.9	0
133	27793	2	0
133	27793	2.1	0
133	27793	2.2	0
133	27793	2.3	0
133	27793	2.4	0
133	27793	2.5	0
133	27793	2.6	0
133	27793	2.7	0
133	27793	2.8	0
133	27793	2.9	0
133	27793	3	0
133	27793	3.1	0
133	27793	3.2	0
133	27793	3.3	0
133	27793	3.4	0
133	27793	3.5	0
133	27793	3.6	0
133	27793	3.7	0
133	27793	3.8	0
133	27793	3.9	0
133	27793	3.976963366941	0

