version 2
run General-0-20220507-23:31:44-18392
attr configname General
attr datetime 20220507-23:31:44
attr experiment General
attr inifile network9.ini
attr iterationvars ""
attr iterationvarsf ""
attr measurement ""
attr network Network9
attr processid 18392
attr repetition 0
attr replication #0
attr resultdir results
attr runnumber 0
attr seedset 0
param *.node[*].mobility.typename "\"VeinsInetMobility\""
param *.manager.updateInterval 0.1s
param *.manager.host "\"localhost\""
param *.manager.port 9999
param *.manager.autoShutdown true
param *.manager.launchConfig "xmldoc(\"erlangen.launchd.xml\")"
param *.manager.moduleType "\"vanettutorials.veins_inet.VeinsInetCar1\""
param *.configurator.addStaticRoutes false
param *.*.wlan[0].opMode "\"a\""
param *.*.wlan[0].radio.bandName "\"5.9 GHz\""
param *.*.wlan[0].radio.channelNumber 3
param *.*.wlan[0].radio.transmitter.power 100mW
param *.*.wlan[0].radio.bandwidth "10 MHz"
param *.*.wlan[0].radio.transmitter.communicationRange 500m
param *.*.ipv4.arp.typename "\"GlobalArp\""
param *.*.ipv4.routingTable.netmaskRoutes "\"\""
param *.configurator.config "xml(\"<config><interface hosts='edge[0]' address='10.0.0.1' netmask='255.255.255.0'/><interface hosts='edge[1]' address='10.0.0.6' netmask='255.255.255.0'/><interface hosts='edge[2]' address='10.0.0.7' netmask='255.255.255.0'/><interface hosts='rsu[0]' address='10.0.0.2' netmask='255.255.255.0'/><interface hosts='rsu[1]' address='10.0.0.5' netmask='255.255.255.0'/><interface hosts='rsu[2]' address='10.0.0.8' netmask='255.255.255.0'/><interface hosts='meco[0]' address='10.0.0.4' netmask='255.255.255.0'/></config>\")"
param *.configurator.dumpAddresses true
param *.configurator.dumpTopology true
param *.configurator.dumpLinks true
param *.configurator.dumpRoutes true
param *.node[*].numApps 1
param *.node[*].app[0].typename "\"vanettutorials.veins_inet.vfognetsim.vehicleMessages.VeinsInetAppForVehicle1\""
param *.node[*].app[0].localPort 5000
param *.node[*].app[0].messageLength 1000B
param *.node[*].app[0].sendInterval exponential(12ms)
param *.node[*].app[0].destPort 5000
param **.node[*].ipv4.configurator.typename "\"HostAutoConfigurator\""
param **.node[*].ipv4.configurator.interfaces "\"wlan0\""
param *.edge[*].numApps 1
param *.edge[*].app[0].typename "\"vanettutorials.veins_inet.vfognetsim.edgeMessages.VeinsInetAppForEdge1\""
param *.edge[*].app[0].localPort 5000
param *.edge[*].app[0].messageLength 1000B
param *.edge[*].app[0].sendInterval exponential(12ms)
param *.edge[*].app[0].destPort 5000
param *.edge[1].app[0].id 21
param *.edge[*].mobility.typename "\"CircleMobility\""
param *.edge[0].mobility.cx 2100m
param *.edge[0].mobility.cy 1650m
param *.edge[0].mobility.r 80m
param *.edge[0].mobility.speed 0mps
param *.edge[0].mobility.startAngle 90deg
param *.edge[1].mobility.cx 2000m
param *.edge[1].mobility.cy 1250m
param *.edge[1].mobility.r 80m
param *.edge[1].mobility.startAngle 90deg
param *.edge[1].mobility.speed 0mps
param *.edge[2].mobility.cx 1900m
param *.edge[2].mobility.cy 1050m
param *.edge[2].mobility.r 80m
param *.edge[2].mobility.speed 0mps
param *.edge[2].mobility.startAngle 90deg
param *.rsu[*].numApps 1
param *.rsu[*].mobility.typename "\"CircleMobility\""
param *.rsu[0].mobility.cx 2100m
param *.rsu[0].mobility.cy 1600m
param *.rsu[0].mobility.r 80m
param *.rsu[0].mobility.speed 0mps
param *.rsu[0].mobility.startAngle 90deg
param *.rsu[1].mobility.cx 2000m
param *.rsu[1].mobility.cy 1200m
param *.rsu[1].mobility.r 80m
param *.rsu[1].mobility.startAngle 90deg
param *.rsu[1].mobility.speed 0mps
param *.rsu[2].mobility.cx 1900m
param *.rsu[2].mobility.cy 1000m
param *.rsu[2].mobility.r 80m
param *.rsu[2].mobility.speed 0mps
param *.rsu[2].mobility.startAngle 90deg
param *.rsu[*].app[0].typename "\"vanettutorials.veins_inet.vfognetsim.rsuMessages.VeinsInetAppForRSU1\""
param *.rsu[*].app[0].localPort 5000
param *.rsu[*].app[0].messageLength 1000B
param *.rsu[*].app[0].sendInterval exponential(12ms)
param *.rsu[*].app[0].destPort 5000
param *.meco[*].numApps 1
param *.meco[*].app[0].typename "\"vanettutorials.veins_inet.vfognetsim.mecoMessages.VeinsInetAppForMeco\""
param *.meco[*].app[0].localPort 5000
param *.meco[*].app[0].messageLength 1000B
param *.meco[*].app[0].sendInterval exponential(12ms)
param *.meco[*].app[0].destPort 5000

scalar Network9.radioMedium.propagation "Arrival computation count" 10661
scalar Network9.radioMedium "transmission count" 1523
scalar Network9.radioMedium "signal send count" 10661
scalar Network9.radioMedium "reception computation count" 10661
scalar Network9.radioMedium "interference computation count" 32358
scalar Network9.radioMedium "reception decision computation count" 8414
scalar Network9.radioMedium "listening decision computation count" 13428
scalar Network9.radioMedium "reception cache hit" 84.603053104375
attr unit %
scalar Network9.radioMedium "interference cache hit" 66.666666666667
attr unit %
scalar Network9.radioMedium "noise cache hit" 0
attr unit %
scalar Network9.radioMedium "snir cache hit" 50
attr unit %
scalar Network9.radioMedium "reception decision cache hit" 50
attr unit %
scalar Network9.radioMedium "reception result cache hit" 0
attr unit %
scalar Network9.node[0].lo[0].lo rcvdPkFromHl:count 0
attr interpolationmode none
attr source packetReceivedFromUpper
attr title "packets received from higher layer, count"
scalar Network9.node[0].lo[0].lo rcvdPkFromHl:sum(packetBytes) 0
attr interpolationmode none
attr source packetReceivedFromUpper
attr title "packets received from higher layer, sum(packetBytes)"
scalar Network9.node[0].lo[0].lo passedUpPk:count 0
attr interpolationmode none
attr source packetSentToUpper
attr title "packets passed to higher layer, count"
scalar Network9.node[0].lo[0].lo passedUpPk:sum(packetBytes) 0
attr interpolationmode none
attr source packetSentToUpper
attr title "packets passed to higher layer, sum(packetBytes)"
scalar Network9.node[0].wlan[0].mac.dcf.channelAccess.pendingQueue packetPopped:count 85
attr interpolationmode none
attr title "packet popped, count"
scalar Network9.node[0].wlan[0].mac.dcf.channelAccess.pendingQueue packetPopped:sum(packetBytes) 13484
attr interpolationmode none
attr title "packet popped, sum(packetBytes)"
statistic Network9.node[0].wlan[0].mac.dcf.channelAccess.pendingQueue queueingTime:histogram
field count 85
field mean 0.00016697204231765
field stddev 0.00011816584473114
field min 0
field max 0.000735
field sum 0.014192623597
field sqrsum 3.5426773641627e-006
attr interpolationmode none
attr source queueingTime(packetPopped)
attr title "queueing times, histogram"
attr unit s
bin	-inf	0
bin	0	2
bin	2e-005	0
bin	4e-005	1
bin	6e-005	4
bin	8e-005	13
bin	0.0001	17
bin	0.00012	11
bin	0.00014	11
bin	0.00016	3
bin	0.00018	5
bin	0.0002	2
bin	0.00022	0
bin	0.00024	1
bin	0.00026	3
bin	0.00028	2
bin	0.0003	1
bin	0.00032	3
bin	0.00034	1
bin	0.00036	1
bin	0.00038	1
bin	0.0004	0
bin	0.00042	0
bin	0.00044	1
bin	0.00046	0
bin	0.00048	0
bin	0.0005	0
bin	0.00052	0
bin	0.00054	0
bin	0.00056	0
bin	0.00058	0
bin	0.0006	1
bin	0.00062	0
bin	0.00064	0
bin	0.00066	0
bin	0.00068	0
bin	0.0007	0
bin	0.00072	1
bin	0.00074	0
bin	0.00076	0
bin	0.00078	0
bin	0.0008	0
bin	0.00082	0
bin	0.00084	0
bin	0.00086	0
bin	0.00088	0
bin	0.0009	0
bin	0.00092	0
scalar Network9.node[0].wlan[0].mac.dcf.channelAccess.pendingQueue queueLength:max 1
attr interpolationmode sample-hold
attr source "count(packetPushed) - count(packetPopped) - count(packetRemoved) - count(packetDropped)"
attr title "queue length, max"
scalar Network9.node[0].wlan[0].mac.dcf.channelAccess.pendingQueue queueLength:timeavg 0.081967364240696
attr interpolationmode sample-hold
attr source "count(packetPushed) - count(packetPopped) - count(packetRemoved) - count(packetDropped)"
attr title "queue length, timeavg"
scalar Network9.node[0].wlan[0].mac.dcf.channelAccess.pendingQueue packetPushed:count 85
attr interpolationmode none
attr title "packet pushed, count"
scalar Network9.node[0].wlan[0].mac.dcf.channelAccess.pendingQueue packetPushed:sum(packetBytes) 13484
attr interpolationmode none
attr title "packet pushed, sum(packetBytes)"
scalar Network9.node[0].wlan[0].mac.dcf.channelAccess.pendingQueue packetDropQueueOverflow:count 0
attr interpolationmode none
attr source packetDropReasonIsQueueOverflow(packetDropped)
attr title "packet drops: queue overflow, count"
scalar Network9.node[0].wlan[0].mac.dcf.channelAccess.pendingQueue packetDropQueueOverflow:sum(packetBytes) 0
attr interpolationmode none
attr source packetDropReasonIsQueueOverflow(packetDropped)
attr title "packet drops: queue overflow, sum(packetBytes)"
scalar Network9.node[0].wlan[0].mac.dcf.channelAccess.pendingQueue packetRemoved:count 0
attr interpolationmode none
attr title "packets removed, count"
scalar Network9.node[0].wlan[0].mac.dcf.channelAccess.pendingQueue packetRemoved:sum(packetBytes) 0
attr interpolationmode none
attr title "packets removed, sum(packetBytes)"
statistic Network9.node[0].wlan[0].mac.dcf.channelAccess.inProgressFrames queueingTime:histogram
field count 84
field mean 0.0012142676005476
field stddev 0.0018832413319698
field min 5.2e-005
field max 0.008001495017
field sum 0.101998478446
field sqrsum 0.00041822107458059
attr interpolationmode none
attr source queueingTime(packetDequeued)
attr title "queueing times, histogram"
bin	-inf	0
bin	0	47
bin	0.0002	3
bin	0.0004	4
bin	0.0006	1
bin	0.0008	5
bin	0.001	2
bin	0.0012	0
bin	0.0014	1
bin	0.0016	0
bin	0.0018	3
bin	0.002	0
bin	0.0022	0
bin	0.0024	2
bin	0.0026	0
bin	0.0028	2
bin	0.003	2
bin	0.0032	0
bin	0.0034	1
bin	0.0036	1
bin	0.0038	2
bin	0.004	2
bin	0.0042	0
bin	0.0044	0
bin	0.0046	0
bin	0.0048	0
bin	0.005	1
bin	0.0052	0
bin	0.0054	0
bin	0.0056	1
bin	0.0058	0
bin	0.006	1
bin	0.0062	1
bin	0.0064	0
bin	0.0066	0
bin	0.0068	0
bin	0.007	0
bin	0.0072	0
bin	0.0074	0
bin	0.0076	1
bin	0.0078	0
bin	0.008	1
bin	0.0082	0
bin	0.0084	0
bin	0.0086	0
bin	0.0088	0
bin	0.009	0
bin	0.0092	0
bin	0.0094	0
bin	0.0096	0
bin	0.0098	0
bin	0.01	0
scalar Network9.node[0].wlan[0].mac.dcf.channelAccess.inProgressFrames queueLength:max 2
attr interpolationmode sample-hold
attr source "count(packetEnqueued) - count(packetDequeued)"
attr title "queue length, max"
scalar Network9.node[0].wlan[0].mac.dcf.channelAccess.inProgressFrames queueLength:timeavg 0.58946593358085
attr interpolationmode sample-hold
attr source "count(packetEnqueued) - count(packetDequeued)"
attr title "queue length, timeavg"
scalar Network9.node[0].wlan[0].mac.dcf.channelAccess.contention stateChanged:count 4138
attr interpolationmode none
attr title "contention state changed, count"
scalar Network9.node[0].wlan[0].mac.dcf.channelAccess.contention channelAccessGranted:count 184
attr title "channel access granted, count"
scalar Network9.node[0].wlan[0].mac.dcf.channelAccess channelOwnershipChanged:count 367
attr interpolationmode sample-hold
attr title "channel ownership, count"
scalar Network9.node[0].wlan[0].mac.dcf.originatorMacDataService packetAggregated:count 0
attr title "packets aggregated, count"
scalar Network9.node[0].wlan[0].mac.dcf.originatorMacDataService packetFragmented:count 0
attr title "packets fragmented, count"
scalar Network9.node[0].wlan[0].mac.dcf.recipientMacDataService packetDropDuplicateDetected:count 0
attr interpolationmode none
attr source packetDropReasonIsDuplicateDetected(packetDropped)
attr title "packet drops: duplicate detected, count"
scalar Network9.node[0].wlan[0].mac.dcf.recipientMacDataService packetDropDuplicateDetected:sum(packetBytes) 0
attr interpolationmode none
attr source packetDropReasonIsDuplicateDetected(packetDropped)
attr title "packet drops: duplicate detected, sum(packetBytes)"
scalar Network9.node[0].wlan[0].mac.dcf.recipientMacDataService packetDeaggregated:count 0
attr title "packets deaggregated, count"
scalar Network9.node[0].wlan[0].mac.dcf.recipientMacDataService packetDefragmented:count 178
attr title "packets defragmented, count"
scalar Network9.node[0].wlan[0].mac.dcf.recoveryProcedure retryLimitReached:count 0
attr title "retry limit reached, count"
scalar Network9.node[0].wlan[0].mac.dcf packetReceivedFromPeer:count 256
attr interpolationmode none
attr title "packets received, count"
scalar Network9.node[0].wlan[0].mac.dcf packetReceivedFromPeer:sum(packetBytes) 28600
attr interpolationmode none
attr title "packets received, sum(packetBytes)"
scalar Network9.node[0].wlan[0].mac.dcf packetReceivedFromPeerUnicast:count 237
attr interpolationmode none
attr source ieee80211Unicast(packetReceivedFromPeer)
attr title "packets received: unicast, count"
scalar Network9.node[0].wlan[0].mac.dcf packetReceivedFromPeerUnicast:sum(packetBytes) 26928
attr interpolationmode none
attr source ieee80211Unicast(packetReceivedFromPeer)
attr title "packets received: unicast, sum(packetBytes)"
scalar Network9.node[0].wlan[0].mac.dcf packetReceivedFromPeerMulticast:count 19
attr interpolationmode none
attr source ieee80211Multicast(packetReceivedFromPeer)
attr title "packets received: multicast, count"
scalar Network9.node[0].wlan[0].mac.dcf packetReceivedFromPeerMulticast:sum(packetBytes) 1672
attr interpolationmode none
attr source ieee80211Multicast(packetReceivedFromPeer)
attr title "packets received: multicast, sum(packetBytes)"
scalar Network9.node[0].wlan[0].mac.dcf packetReceivedFromPeerBroadcast:count 19
attr interpolationmode none
attr source ieee80211Broadcast(packetReceivedFromPeer)
attr title "packets received: broadcast, count"
scalar Network9.node[0].wlan[0].mac.dcf packetReceivedFromPeerBroadcast:sum(packetBytes) 1672
attr interpolationmode none
attr source ieee80211Broadcast(packetReceivedFromPeer)
attr title "packets received: broadcast, sum(packetBytes)"
scalar Network9.node[0].wlan[0].mac.dcf packetReceivedFromPeerWithRetry:count 4
attr interpolationmode none
attr source ieee80211Retry(packetReceivedFromPeer)
attr title "packets received: with retry, count"
scalar Network9.node[0].wlan[0].mac.dcf packetReceivedFromPeerWithRetry:sum(packetBytes) 576
attr interpolationmode none
attr source ieee80211Retry(packetReceivedFromPeer)
attr title "packets received: with retry, sum(packetBytes)"
scalar Network9.node[0].wlan[0].mac.dcf packetReceivedFromPeerWithoutRetry:count 252
attr interpolationmode none
attr source ieee80211NotRetry(packetReceivedFromPeer)
attr title "packets received: without retry, count"
scalar Network9.node[0].wlan[0].mac.dcf packetReceivedFromPeerWithoutRetry:sum(packetBytes) 28024
attr interpolationmode none
attr source ieee80211NotRetry(packetReceivedFromPeer)
attr title "packets received: without retry, sum(packetBytes)"
scalar Network9.node[0].wlan[0].mac.dcf packetSentToPeer:count 342
attr interpolationmode none
attr title "packets sent, count"
scalar Network9.node[0].wlan[0].mac.dcf packetSentToPeer:sum(packetBytes) 31782
attr interpolationmode none
attr title "packets sent, sum(packetBytes)"
scalar Network9.node[0].wlan[0].mac.dcf packetSentToPeerUnicast:count 336
attr interpolationmode none
attr source ieee80211Unicast(packetSentToPeer)
attr title "packets sent: unicast, count"
scalar Network9.node[0].wlan[0].mac.dcf packetSentToPeerUnicast:sum(packetBytes) 31254
attr interpolationmode none
attr source ieee80211Unicast(packetSentToPeer)
attr title "packets sent: unicast, sum(packetBytes)"
scalar Network9.node[0].wlan[0].mac.dcf packetSentToPeerMulticast:count 6
attr interpolationmode none
attr source ieee80211Multicast(packetSentToPeer)
attr title "packets sent: multicast, count"
scalar Network9.node[0].wlan[0].mac.dcf packetSentToPeerMulticast:sum(packetBytes) 528
attr interpolationmode none
attr source ieee80211Multicast(packetSentToPeer)
attr title "packets sent: multicast, sum(packetBytes)"
scalar Network9.node[0].wlan[0].mac.dcf packetSentToPeerBroadcast:count 6
attr interpolationmode none
attr source ieee80211Broadcast(packetSentToPeer)
attr title "packets sent: broadcast , count"
scalar Network9.node[0].wlan[0].mac.dcf packetSentToPeerBroadcast:sum(packetBytes) 528
attr interpolationmode none
attr source ieee80211Broadcast(packetSentToPeer)
attr title "packets sent: broadcast , sum(packetBytes)"
scalar Network9.node[0].wlan[0].mac.dcf packetSentToPeerWithRetry:count 99
attr interpolationmode none
attr source ieee80211Retry(packetSentToPeer)
attr title "packets sent: with retry, count"
scalar Network9.node[0].wlan[0].mac.dcf packetSentToPeerWithRetry:sum(packetBytes) 16236
attr interpolationmode none
attr source ieee80211Retry(packetSentToPeer)
attr title "packets sent: with retry, sum(packetBytes)"
scalar Network9.node[0].wlan[0].mac.dcf packetSentToPeerWithoutRetry:count 243
attr interpolationmode none
attr source ieee80211NotRetry(packetSentToPeer)
attr title "packets sent: without retry, count"
scalar Network9.node[0].wlan[0].mac.dcf packetSentToPeerWithoutRetry:sum(packetBytes) 15546
attr interpolationmode none
attr source ieee80211NotRetry(packetSentToPeer)
attr title "packets sent: without retry, sum(packetBytes)"
scalar Network9.node[0].wlan[0].mac.dcf packetDrop:count 212
attr interpolationmode none
attr source packetDropped
attr title "packet drops, count"
scalar Network9.node[0].wlan[0].mac.dcf packetDrop:sum(packetBytes) 17568
attr interpolationmode none
attr source packetDropped
attr title "packet drops, sum(packetBytes)"
scalar Network9.node[0].wlan[0].mac.dcf packetDropNotAddressedToUs:count 212
attr interpolationmode none
attr source packetDropReasonIsNotAddressedToUs(packetDropped)
attr title "packet drops: not addressed to us, count"
scalar Network9.node[0].wlan[0].mac.dcf packetDropNotAddressedToUs:sum(packetBytes) 17568
attr interpolationmode none
attr source packetDropReasonIsNotAddressedToUs(packetDropped)
attr title "packet drops: not addressed to us, sum(packetBytes)"
scalar Network9.node[0].wlan[0].mac.dcf packetDropQueueOverflow:count 0
attr interpolationmode none
attr source packetDropReasonIsQueueOverflow(packetDropped)
attr title "packet drops: queue overflow, count"
scalar Network9.node[0].wlan[0].mac.dcf packetDropQueueOverflow:sum(packetBytes) 0
attr interpolationmode none
attr source packetDropReasonIsQueueOverflow(packetDropped)
attr title "packet drops: queue overflow, sum(packetBytes)"
scalar Network9.node[0].wlan[0].mac.dcf packetDropRetryLimitReached:count 0
attr interpolationmode none
attr source packetDropReasonIsRetryLimitReached(packetDropped)
attr title "packet drops: retry limit reached, count"
scalar Network9.node[0].wlan[0].mac.dcf packetDropRetryLimitReached:sum(packetBytes) 0
attr interpolationmode none
attr source packetDropReasonIsRetryLimitReached(packetDropped)
attr title "packet drops: retry limit reached, sum(packetBytes)"
scalar Network9.node[0].wlan[0].mac.dcf linkBroken:count 0
attr interpolationmode none
attr title "link breaks, count"
scalar Network9.node[0].wlan[0].mac.dcf frameSequenceFinished:count 183
attr title "finished frame sequences, count"
statistic Network9.node[0].wlan[0].mac.dcf frameSequenceDuration:histogram
field count 183
field mean 0.00012258110538798
field stddev 1.4192054579345e-005
field min 5.2e-005
field max 0.000197157582
field sum 0.022432342286
field sqrsum 2.7864387370587e-006
attr source frameSequenceDuration(frameSequenceFinished)
attr title "frame sequence durations, histogram"
bin	-inf	0
bin	3.2e-005	0
bin	3.4e-005	0
bin	3.6e-005	0
bin	3.8e-005	0
bin	4e-005	0
bin	4.2e-005	0
bin	4.4e-005	0
bin	4.6e-005	0
bin	4.8e-005	0
bin	5e-005	6
bin	5.2e-005	0
bin	5.4e-005	0
bin	5.6e-005	0
bin	5.8e-005	0
bin	6e-005	0
bin	6.2e-005	0
bin	6.4e-005	0
bin	6.6e-005	0
bin	6.8e-005	0
bin	7e-005	0
bin	7.2e-005	0
bin	7.4e-005	0
bin	7.6e-005	0
bin	7.8e-005	0
bin	8e-005	0
bin	8.2e-005	0
bin	8.4e-005	0
bin	8.6e-005	0
bin	8.8e-005	0
bin	9e-005	0
bin	9.2e-005	0
bin	9.4e-005	0
bin	9.6e-005	0
bin	9.8e-005	0
bin	0.0001	0
bin	0.000102	0
bin	0.000104	0
bin	0.000106	0
bin	0.000108	0
bin	0.00011	0
bin	0.000112	0
bin	0.000114	0
bin	0.000116	0
bin	0.000118	0
bin	0.00012	0
bin	0.000122	78
bin	0.000124	98
bin	0.000126	0
bin	0.000128	0
bin	0.00013	0
bin	0.000132	0
bin	0.000134	0
bin	0.000136	0
bin	0.000138	0
bin	0.00014	0
bin	0.000142	0
bin	0.000144	0
bin	0.000146	0
bin	0.000148	0
bin	0.00015	0
bin	0.000152	0
bin	0.000154	0
bin	0.000156	0
bin	0.000158	0
bin	0.00016	0
bin	0.000162	0
bin	0.000164	0
bin	0.000166	0
bin	0.000168	0
bin	0.00017	0
bin	0.000172	0
bin	0.000174	0
bin	0.000176	0
bin	0.000178	0
bin	0.00018	0
bin	0.000182	0
bin	0.000184	0
bin	0.000186	0
bin	0.000188	0
bin	0.00019	0
bin	0.000192	0
bin	0.000194	0
bin	0.000196	1
bin	0.000198	0
statistic Network9.node[0].wlan[0].mac.dcf frameSequenceNumPackets:histogram
field count 183
field mean 1.9672131147541
field stddev 0.17856692482161
field min 1
field max 2
field sum 360
field sqrsum 714
attr source frameSequenceNumPackets(frameSequenceFinished)
attr title "frame sequences: number of packets, histogram"
bin	-inf	0
bin	0	0
bin	1	6
bin	2	177
bin	3	0
scalar Network9.node[0].wlan[0].mac packetReceivedFromLower:count 480
attr interpolationmode none
attr title "packets received from lower layer, count"
scalar Network9.node[0].wlan[0].mac packetReceivedFromLower:sum(packetBytes) 47454
attr interpolationmode none
attr title "packets received from lower layer, sum(packetBytes)"
scalar Network9.node[0].wlan[0].mac packetSentToLower:count 343
attr interpolationmode none
attr title "packets sent to lower layer, count"
scalar Network9.node[0].wlan[0].mac packetSentToLower:sum(packetBytes) 31946
attr interpolationmode none
attr title "packets sent to lower layer, sum(packetBytes)"
scalar Network9.node[0].wlan[0].mac packetReceivedFromUpper:count 85
attr interpolationmode none
attr title "packets received from upper layer, count"
scalar Network9.node[0].wlan[0].mac packetReceivedFromUpper:sum(packetBytes) 11104
attr interpolationmode none
attr title "packets received from upper layer, sum(packetBytes)"
scalar Network9.node[0].wlan[0].mac packetSentToUpper:count 178
attr interpolationmode none
attr title "packets sent to upper layer, count"
scalar Network9.node[0].wlan[0].mac packetSentToUpper:sum(packetBytes) 22524
attr interpolationmode none
attr title "packets sent to upper layer, sum(packetBytes)"
scalar Network9.node[0].wlan[0].mac packetDrop:count 223
attr interpolationmode none
attr source packetDropped
attr title "packet drops, count"
scalar Network9.node[0].wlan[0].mac packetDrop:sum(packetBytes) 18690
attr interpolationmode none
attr source packetDropped
attr title "packet drops, sum(packetBytes)"
scalar Network9.node[0].wlan[0].mac packetDropIncorrectlyReceived:count 11
attr interpolationmode none
attr source packetDropReasonIsIncorrectlyReceived(packetDropped)
attr title "packet drops: incorrectly received, count"
scalar Network9.node[0].wlan[0].mac packetDropIncorrectlyReceived:sum(packetBytes) 1122
attr interpolationmode none
attr source packetDropReasonIsIncorrectlyReceived(packetDropped)
attr title "packet drops: incorrectly received, sum(packetBytes)"
scalar Network9.node[0].wlan[0].mac packetDropNotAddressedToUs:count 212
attr interpolationmode none
attr source packetDropReasonIsNotAddressedToUs(packetDropped)
attr title "packet drops: not addressed to us, count"
scalar Network9.node[0].wlan[0].mac packetDropNotAddressedToUs:sum(packetBytes) 17568
attr interpolationmode none
attr source packetDropReasonIsNotAddressedToUs(packetDropped)
attr title "packet drops: not addressed to us, sum(packetBytes)"
scalar Network9.node[0].wlan[0].mac packetDropQueueOverflow:count 0
attr interpolationmode none
attr source packetDropReasonIsQueueOverflow(packetDropped)
attr title "packet drops: queue overflow, count"
scalar Network9.node[0].wlan[0].mac packetDropQueueOverflow:sum(packetBytes) 0
attr interpolationmode none
attr source packetDropReasonIsQueueOverflow(packetDropped)
attr title "packet drops: queue overflow, sum(packetBytes)"
scalar Network9.node[0].wlan[0].mac packetDropRetryLimitReached:count 0
attr interpolationmode none
attr source packetDropReasonIsRetryLimitReached(packetDropped)
attr title "packet drops: retry limit reached, count"
scalar Network9.node[0].wlan[0].mac packetDropRetryLimitReached:sum(packetBytes) 0
attr interpolationmode none
attr source packetDropReasonIsRetryLimitReached(packetDropped)
attr title "packet drops: retry limit reached, sum(packetBytes)"
scalar Network9.node[0].wlan[0].mac packetDropDuplicateDetected:count 0
attr interpolationmode none
attr source packetDropReasonIsDuplicateDetected(packetDropped)
attr title "packet drops: duplicate detected, count"
scalar Network9.node[0].wlan[0].mac packetDropDuplicateDetected:sum(packetBytes) 0
attr interpolationmode none
attr source packetDropReasonIsDuplicateDetected(packetDropped)
attr title "packet drops: duplicate detected, sum(packetBytes)"
scalar Network9.node[0].wlan[0].mac packetDropOther:count 0
attr interpolationmode none
attr source packetDropReasonIsOther(packetDropped)
attr title "packet drops: other, count"
scalar Network9.node[0].wlan[0].mac packetDropOther:sum(packetBytes) 0
attr interpolationmode none
attr source packetDropReasonIsOther(packetDropped)
attr title "packet drops: other, sum(packetBytes)"
scalar Network9.node[0].wlan[0].mac linkBroken:count 0
attr interpolationmode none
attr title "link breaks, count"
statistic Network9.node[0].wlan[0].radio minSnir:histogram
field count 480
field mean 1227.1754180724
field stddev 531.41531297804
field min 2.751910433344
field max 1581.0975252714
field sum 589044.20067475
field sqrsum 858131233.72771
attr source minimumSnir(packetSentToUpper)
attr title "Min SNIR, histogram"
bin	-inf	0
bin	0	11
bin	20	0
bin	40	0
bin	60	0
bin	80	0
bin	100	0
bin	120	0
bin	140	0
bin	160	0
bin	180	0
bin	200	0
bin	220	0
bin	240	0
bin	260	0
bin	280	0
bin	300	0
bin	320	0
bin	340	0
bin	360	0
bin	380	0
bin	400	0
bin	420	0
bin	440	0
bin	460	128
bin	480	0
bin	500	0
bin	520	7
bin	540	0
bin	560	0
bin	580	0
bin	600	0
bin	620	0
bin	640	0
bin	660	0
bin	680	0
bin	700	0
bin	720	0
bin	740	0
bin	760	0
bin	780	0
bin	800	0
bin	820	0
bin	840	0
bin	860	0
bin	880	0
bin	900	0
bin	920	0
bin	940	0
bin	960	0
bin	980	0
bin	1000	0
bin	1020	0
bin	1040	0
bin	1060	0
bin	1080	0
bin	1100	0
bin	1120	0
bin	1140	0
bin	1160	0
bin	1180	0
bin	1200	0
bin	1220	0
bin	1240	0
bin	1260	0
bin	1280	0
bin	1300	0
bin	1320	0
bin	1340	0
bin	1360	0
bin	1380	0
bin	1400	0
bin	1420	0
bin	1440	0
bin	1460	0
bin	1480	0
bin	1500	0
bin	1520	0
bin	1540	0
bin	1560	232
bin	1580	102
bin	1600	0
bin	1620	0
bin	1640	0
bin	1660	0
bin	1680	0
bin	1700	0
bin	1720	0
bin	1740	0
bin	1760	0
bin	1780	0
bin	1800	0
bin	1820	0
bin	1840	0
bin	1860	0
bin	1880	0
bin	1900	0
bin	1920	0
bin	1940	0
bin	1960	0
bin	1980	0
statistic Network9.node[0].wlan[0].radio packetErrorRate:histogram
field count 480
field mean 0.022916666666667
field stddev 0.14979398982474
field min 0
field max 1
field sum 11
field sqrsum 11
attr source packetErrorRate(packetSentToUpper)
attr title "Packet error rate, histogram"
bin	-inf	0
bin	0	469
bin	1	11
bin	2	0
statistic Network9.node[0].wlan[0].radio bitErrorRate:histogram
field count 0
field mean nan
field stddev nan
field min nan
field max nan
field sum 0
field sqrsum 0
attr source bitErrorRate(packetSentToUpper)
attr title "Bit error rate, histogram"
bin	-inf	0
bin	0	0
bin	1	0
statistic Network9.node[0].wlan[0].radio symbolErrorRate:histogram
field count 0
field mean nan
field stddev nan
field min nan
field max nan
field sum 0
field sqrsum 0
attr source symbolErrorRate(packetSentToUpper)
attr title "Symbol error rate, histogram"
bin	-inf	0
bin	0	0
bin	1	0
scalar Network9.node[0].wlan[0].radio transmissionState:count 1370
attr interpolationmode sample-hold
attr source transmissionStateChanged
attr title "Radio transmission state, count"
scalar Network9.node[0].wlan[0].radio receptionState:count 1659
attr interpolationmode sample-hold
attr source receptionStateChanged
attr title "Radio reception state, count"
scalar Network9.node[0].wlan[0].radio radioMode:count 688
attr interpolationmode sample-hold
attr source radioModeChanged
attr title "Radio mode, count"
statistic Network9.node[0].wlan[0].radio radioChannel:histogram
field count 1
field mean 3
field stddev nan
field min 3
field max 3
field sum 3
field sqrsum 9
attr interpolationmode sample-hold
attr source radioChannelChanged
attr title "Radio channel, histogram"
bin	-inf	0
bin	2	0
bin	3	1
bin	4	0
scalar Network9.node[0].ipv4.ip packetDropAddressResolutionFailed:count 0
attr interpolationmode none
attr source packetDropReasonIsAddressResolutionFailed(packetDropped)
attr title "packet drop: address resolution failed, count"
scalar Network9.node[0].ipv4.ip packetDropAddressResolutionFailed:sum(packetBytes) 0
attr interpolationmode none
attr source packetDropReasonIsAddressResolutionFailed(packetDropped)
attr title "packet drop: address resolution failed, sum(packetBytes)"
scalar Network9.node[0].ipv4.ip packetDropHopLimitReached:count 0
attr interpolationmode none
attr source packetDropReasonIsHopLimitReached(packetDropped)
attr title "packet drop: hop limit reached, count"
scalar Network9.node[0].ipv4.ip packetDropHopLimitReached:sum(packetBytes) 0
attr interpolationmode none
attr source packetDropReasonIsHopLimitReached(packetDropped)
attr title "packet drop: hop limit reached, sum(packetBytes)"
scalar Network9.node[0].ipv4.ip packetDropForwardingDisabled:count 0
attr interpolationmode none
attr source packetDropReasonIsForwardingDisabled(packetDropped)
attr title "packet drop: forwarding disabled, count"
scalar Network9.node[0].ipv4.ip packetDropForwardingDisabled:sum(packetBytes) 0
attr interpolationmode none
attr source packetDropReasonIsForwardingDisabled(packetDropped)
attr title "packet drop: forwarding disabled, sum(packetBytes)"
scalar Network9.node[0].ipv4.ip packetDropNoInterfaceFound:count 0
attr interpolationmode none
attr source packetDropReasonIsNoInterfaceFound(packetDropped)
attr title "packet drop: no interface found, count"
scalar Network9.node[0].ipv4.ip packetDropNoInterfaceFound:sum(packetBytes) 0
attr interpolationmode none
attr source packetDropReasonIsNoInterfaceFound(packetDropped)
attr title "packet drop: no interface found, sum(packetBytes)"
scalar Network9.node[0].ipv4.ip packetDropNoRouteFound:count 0
attr interpolationmode none
attr source packetDropReasonIsNoRouteFound(packetDropped)
attr title "packet drop: no route found, count"
scalar Network9.node[0].ipv4.ip packetDropNoRouteFound:sum(packetBytes) 0
attr interpolationmode none
attr source packetDropReasonIsNoRouteFound(packetDropped)
attr title "packet drop: no route found, sum(packetBytes)"
scalar Network9.node[0].ipv4.ip packetDropUndefined:count 0
attr interpolationmode none
attr source packetDropReasonIsUndefined(packetDropped)
attr title "packet drop: undefined, count"
scalar Network9.node[0].ipv4.ip packetDropUndefined:sum(packetBytes) 0
attr interpolationmode none
attr source packetDropReasonIsUndefined(packetDropped)
attr title "packet drop: undefined, sum(packetBytes)"
scalar Network9.node[0].udp packetReceived:count 178
attr interpolationmode none
attr source packetReceived
attr title "packets received, count"
scalar Network9.node[0].udp packetReceived:sum(packetBytes) 17540
attr interpolationmode none
attr source packetReceived
attr title "packets received, sum(packetBytes)"
scalar Network9.node[0].udp packetSent:count 85
attr interpolationmode none
attr source packetSent
attr title "packets sent, count"
scalar Network9.node[0].udp packetSent:sum(packetBytes) 8724
attr interpolationmode none
attr source packetSent
attr title "packets sent, sum(packetBytes)"
scalar Network9.node[0].udp passedUpPk:count 178
attr interpolationmode none
attr source packetSentToUpper
attr title "packets passed up, count"
scalar Network9.node[0].udp droppedPkWrongPort:count 0
attr interpolationmode none
attr source packetDropReasonIsNoPortFound(packetDropped)
attr title "packets dropped (wrong port), count"
scalar Network9.node[0].udp droppedPkBadChecksum:count 0
attr interpolationmode none
attr source packetDropReasonIsIncorrectlyReceived(packetDropped)
attr title "packets dropped (checksum error), count"
scalar Network9.node[0].app[0] packetReceived:count 156
attr interpolationmode none
attr source packetReceived
attr title "packets received, count"
scalar Network9.node[0].app[0] packetReceived:sum(packetBytes) 15600
attr interpolationmode none
attr source packetReceived
attr title "packets received, sum(packetBytes)"
statistic Network9.node[0].app[0] rcvdPkLifetime:stats
field count 0
field mean nan
field stddev nan
field min nan
field max nan
field sum 0
field sqrsum 0
attr interpolationmode none
attr source dataAge(packetReceived)
attr title "received packet lifetime, stats"
attr unit s
scalar Network9.node[0].app[0] packetSent:count 79
attr interpolationmode none
attr source packetSent
attr title "packets sent, count"
scalar Network9.node[0].app[0] packetSent:sum(packetBytes) 7900
attr interpolationmode none
attr source packetSent
attr title "packets sent, sum(packetBytes)"
scalar Network9.manager roiArea 0
scalar Network9.edge[0].lo[0].lo rcvdPkFromHl:count 0
attr interpolationmode none
attr source packetReceivedFromUpper
attr title "packets received from higher layer, count"
scalar Network9.edge[0].lo[0].lo rcvdPkFromHl:sum(packetBytes) 0
attr interpolationmode none
attr source packetReceivedFromUpper
attr title "packets received from higher layer, sum(packetBytes)"
scalar Network9.edge[0].lo[0].lo passedUpPk:count 0
attr interpolationmode none
attr source packetSentToUpper
attr title "packets passed to higher layer, count"
scalar Network9.edge[0].lo[0].lo passedUpPk:sum(packetBytes) 0
attr interpolationmode none
attr source packetSentToUpper
attr title "packets passed to higher layer, sum(packetBytes)"
scalar Network9.edge[0].wlan[0].mac.dcf.channelAccess.pendingQueue packetPopped:count 91
attr interpolationmode none
attr title "packet popped, count"
scalar Network9.edge[0].wlan[0].mac.dcf.channelAccess.pendingQueue packetPopped:sum(packetBytes) 14304
attr interpolationmode none
attr title "packet popped, sum(packetBytes)"
statistic Network9.edge[0].wlan[0].mac.dcf.channelAccess.pendingQueue queueingTime:histogram
field count 91
field mean 0.00049696074040659
field stddev 0.00056876524152439
field min 0
field max 0.002962573786
field sum 0.045223427377
field sqrsum 5.1588718949965e-005
attr interpolationmode none
attr source queueingTime(packetPopped)
attr title "queueing times, histogram"
attr unit s
bin	-inf	0
bin	0	3
bin	5e-005	9
bin	0.0001	17
bin	0.00015	3
bin	0.0002	0
bin	0.00025	7
bin	0.0003	13
bin	0.00035	5
bin	0.0004	1
bin	0.00045	5
bin	0.0005	4
bin	0.00055	0
bin	0.0006	3
bin	0.00065	1
bin	0.0007	3
bin	0.00075	0
bin	0.0008	3
bin	0.00085	3
bin	0.0009	0
bin	0.00095	1
bin	0.001	1
bin	0.00105	0
bin	0.0011	0
bin	0.00115	1
bin	0.0012	1
bin	0.00125	1
bin	0.0013	0
bin	0.00135	0
bin	0.0014	1
bin	0.00145	0
bin	0.0015	0
bin	0.00155	0
bin	0.0016	1
bin	0.00165	0
bin	0.0017	0
bin	0.00175	0
bin	0.0018	0
bin	0.00185	0
bin	0.0019	0
bin	0.00195	0
bin	0.002	1
bin	0.00205	0
bin	0.0021	0
bin	0.00215	0
bin	0.0022	0
bin	0.00225	0
bin	0.0023	0
bin	0.00235	0
bin	0.0024	0
bin	0.00245	0
bin	0.0025	1
bin	0.00255	0
bin	0.0026	0
bin	0.00265	0
bin	0.0027	0
bin	0.00275	0
bin	0.0028	1
bin	0.00285	0
bin	0.0029	0
bin	0.00295	1
bin	0.003	0
bin	0.00305	0
bin	0.0031	0
bin	0.00315	0
bin	0.0032	0
bin	0.00325	0
bin	0.0033	0
bin	0.00335	0
bin	0.0034	0
bin	0.00345	0
bin	0.0035	0
bin	0.00355	0
bin	0.0036	0
bin	0.00365	0
bin	0.0037	0
bin	0.00375	0
scalar Network9.edge[0].wlan[0].mac.dcf.channelAccess.pendingQueue queueLength:max 8
attr interpolationmode sample-hold
attr source "count(packetPushed) - count(packetPopped) - count(packetRemoved) - count(packetDropped)"
attr title "queue length, max"
scalar Network9.edge[0].wlan[0].mac.dcf.channelAccess.pendingQueue queueLength:timeavg 0.26816906763002
attr interpolationmode sample-hold
attr source "count(packetPushed) - count(packetPopped) - count(packetRemoved) - count(packetDropped)"
attr title "queue length, timeavg"
scalar Network9.edge[0].wlan[0].mac.dcf.channelAccess.pendingQueue packetPushed:count 91
attr interpolationmode none
attr title "packet pushed, count"
scalar Network9.edge[0].wlan[0].mac.dcf.channelAccess.pendingQueue packetPushed:sum(packetBytes) 14304
attr interpolationmode none
attr title "packet pushed, sum(packetBytes)"
scalar Network9.edge[0].wlan[0].mac.dcf.channelAccess.pendingQueue packetDropQueueOverflow:count 0
attr interpolationmode none
attr source packetDropReasonIsQueueOverflow(packetDropped)
attr title "packet drops: queue overflow, count"
scalar Network9.edge[0].wlan[0].mac.dcf.channelAccess.pendingQueue packetDropQueueOverflow:sum(packetBytes) 0
attr interpolationmode none
attr source packetDropReasonIsQueueOverflow(packetDropped)
attr title "packet drops: queue overflow, sum(packetBytes)"
scalar Network9.edge[0].wlan[0].mac.dcf.channelAccess.pendingQueue packetRemoved:count 0
attr interpolationmode none
attr title "packets removed, count"
scalar Network9.edge[0].wlan[0].mac.dcf.channelAccess.pendingQueue packetRemoved:sum(packetBytes) 0
attr interpolationmode none
attr title "packets removed, sum(packetBytes)"
statistic Network9.edge[0].wlan[0].mac.dcf.channelAccess.inProgressFrames queueingTime:histogram
field count 91
field mean 0.0003247324119011
field stddev 0.00029245848039459
field min 5.2e-005
field max 0.001320462463
field sum 0.029550649483
field sqrsum 1.7293930327783e-005
attr interpolationmode none
attr source queueingTime(packetDequeued)
attr title "queueing times, histogram"
bin	-inf	0
bin	0	0
bin	2e-005	0
bin	4e-005	3
bin	6e-005	0
bin	8e-005	1
bin	0.0001	0
bin	0.00012	43
bin	0.00014	0
bin	0.00016	0
bin	0.00018	0
bin	0.0002	0
bin	0.00022	1
bin	0.00024	0
bin	0.00026	1
bin	0.00028	5
bin	0.0003	3
bin	0.00032	3
bin	0.00034	2
bin	0.00036	2
bin	0.00038	1
bin	0.0004	2
bin	0.00042	0
bin	0.00044	0
bin	0.00046	1
bin	0.00048	5
bin	0.0005	4
bin	0.00052	0
bin	0.00054	1
bin	0.00056	0
bin	0.00058	0
bin	0.0006	0
bin	0.00062	0
bin	0.00064	0
bin	0.00066	0
bin	0.00068	3
bin	0.0007	2
bin	0.00072	0
bin	0.00074	0
bin	0.00076	0
bin	0.00078	0
bin	0.0008	0
bin	0.00082	0
bin	0.00084	0
bin	0.00086	0
bin	0.00088	1
bin	0.0009	1
bin	0.00092	1
bin	0.00094	0
bin	0.00096	0
bin	0.00098	1
bin	0.001	0
bin	0.00102	0
bin	0.00104	0
bin	0.00106	1
bin	0.00108	0
bin	0.0011	0
bin	0.00112	0
bin	0.00114	0
bin	0.00116	1
bin	0.00118	0
bin	0.0012	0
bin	0.00122	0
bin	0.00124	1
bin	0.00126	0
bin	0.00128	0
bin	0.0013	0
bin	0.00132	1
bin	0.00134	0
bin	0.00136	0
bin	0.00138	0
bin	0.0014	0
bin	0.00142	0
bin	0.00144	0
bin	0.00146	0
bin	0.00148	0
bin	0.0015	0
bin	0.00152	0
bin	0.00154	0
bin	0.00156	0
bin	0.00158	0
bin	0.0016	0
bin	0.00162	0
bin	0.00164	0
scalar Network9.edge[0].wlan[0].mac.dcf.channelAccess.inProgressFrames queueLength:max 2
attr interpolationmode sample-hold
attr source "count(packetEnqueued) - count(packetDequeued)"
attr title "queue length, max"
scalar Network9.edge[0].wlan[0].mac.dcf.channelAccess.inProgressFrames queueLength:timeavg 0.17523152444098
attr interpolationmode sample-hold
attr source "count(packetEnqueued) - count(packetDequeued)"
attr title "queue length, timeavg"
scalar Network9.edge[0].wlan[0].mac.dcf.channelAccess.contention stateChanged:count 5844
attr interpolationmode none
attr title "contention state changed, count"
scalar Network9.edge[0].wlan[0].mac.dcf.channelAccess.contention channelAccessGranted:count 93
attr title "channel access granted, count"
scalar Network9.edge[0].wlan[0].mac.dcf.channelAccess channelOwnershipChanged:count 186
attr interpolationmode sample-hold
attr title "channel ownership, count"
scalar Network9.edge[0].wlan[0].mac.dcf.originatorMacDataService packetAggregated:count 0
attr title "packets aggregated, count"
scalar Network9.edge[0].wlan[0].mac.dcf.originatorMacDataService packetFragmented:count 0
attr title "packets fragmented, count"
scalar Network9.edge[0].wlan[0].mac.dcf.recipientMacDataService packetDropDuplicateDetected:count 1
attr interpolationmode none
attr source packetDropReasonIsDuplicateDetected(packetDropped)
attr title "packet drops: duplicate detected, count"
scalar Network9.edge[0].wlan[0].mac.dcf.recipientMacDataService packetDropDuplicateDetected:sum(packetBytes) 164
attr interpolationmode none
attr source packetDropReasonIsDuplicateDetected(packetDropped)
attr title "packet drops: duplicate detected, sum(packetBytes)"
scalar Network9.edge[0].wlan[0].mac.dcf.recipientMacDataService packetDeaggregated:count 0
attr title "packets deaggregated, count"
scalar Network9.edge[0].wlan[0].mac.dcf.recipientMacDataService packetDefragmented:count 93
attr title "packets defragmented, count"
scalar Network9.edge[0].wlan[0].mac.dcf.recoveryProcedure retryLimitReached:count 0
attr title "retry limit reached, count"
scalar Network9.edge[0].wlan[0].mac.dcf packetReceivedFromPeer:count 180
attr interpolationmode none
attr title "packets received, count"
scalar Network9.edge[0].wlan[0].mac.dcf packetReceivedFromPeer:sum(packetBytes) 14556
attr interpolationmode none
attr title "packets received, sum(packetBytes)"
scalar Network9.edge[0].wlan[0].mac.dcf packetReceivedFromPeerUnicast:count 156
attr interpolationmode none
attr source ieee80211Unicast(packetReceivedFromPeer)
attr title "packets received: unicast, count"
scalar Network9.edge[0].wlan[0].mac.dcf packetReceivedFromPeerUnicast:sum(packetBytes) 12444
attr interpolationmode none
attr source ieee80211Unicast(packetReceivedFromPeer)
attr title "packets received: unicast, sum(packetBytes)"
scalar Network9.edge[0].wlan[0].mac.dcf packetReceivedFromPeerMulticast:count 24
attr interpolationmode none
attr source ieee80211Multicast(packetReceivedFromPeer)
attr title "packets received: multicast, count"
scalar Network9.edge[0].wlan[0].mac.dcf packetReceivedFromPeerMulticast:sum(packetBytes) 2112
attr interpolationmode none
attr source ieee80211Multicast(packetReceivedFromPeer)
attr title "packets received: multicast, sum(packetBytes)"
scalar Network9.edge[0].wlan[0].mac.dcf packetReceivedFromPeerBroadcast:count 24
attr interpolationmode none
attr source ieee80211Broadcast(packetReceivedFromPeer)
attr title "packets received: broadcast, count"
scalar Network9.edge[0].wlan[0].mac.dcf packetReceivedFromPeerBroadcast:sum(packetBytes) 2112
attr interpolationmode none
attr source ieee80211Broadcast(packetReceivedFromPeer)
attr title "packets received: broadcast, sum(packetBytes)"
scalar Network9.edge[0].wlan[0].mac.dcf packetReceivedFromPeerWithRetry:count 7
attr interpolationmode none
attr source ieee80211Retry(packetReceivedFromPeer)
attr title "packets received: with retry, count"
scalar Network9.edge[0].wlan[0].mac.dcf packetReceivedFromPeerWithRetry:sum(packetBytes) 1068
attr interpolationmode none
attr source ieee80211Retry(packetReceivedFromPeer)
attr title "packets received: with retry, sum(packetBytes)"
scalar Network9.edge[0].wlan[0].mac.dcf packetReceivedFromPeerWithoutRetry:count 173
attr interpolationmode none
attr source ieee80211NotRetry(packetReceivedFromPeer)
attr title "packets received: without retry, count"
scalar Network9.edge[0].wlan[0].mac.dcf packetReceivedFromPeerWithoutRetry:sum(packetBytes) 13488
attr interpolationmode none
attr source ieee80211NotRetry(packetReceivedFromPeer)
attr title "packets received: without retry, sum(packetBytes)"
scalar Network9.edge[0].wlan[0].mac.dcf packetSentToPeer:count 163
attr interpolationmode none
attr title "packets sent, count"
scalar Network9.edge[0].wlan[0].mac.dcf packetSentToPeer:sum(packetBytes) 15532
attr interpolationmode none
attr title "packets sent, sum(packetBytes)"
scalar Network9.edge[0].wlan[0].mac.dcf packetSentToPeerUnicast:count 158
attr interpolationmode none
attr source ieee80211Unicast(packetSentToPeer)
attr title "packets sent: unicast, count"
scalar Network9.edge[0].wlan[0].mac.dcf packetSentToPeerUnicast:sum(packetBytes) 15092
attr interpolationmode none
attr source ieee80211Unicast(packetSentToPeer)
attr title "packets sent: unicast, sum(packetBytes)"
scalar Network9.edge[0].wlan[0].mac.dcf packetSentToPeerMulticast:count 5
attr interpolationmode none
attr source ieee80211Multicast(packetSentToPeer)
attr title "packets sent: multicast, count"
scalar Network9.edge[0].wlan[0].mac.dcf packetSentToPeerMulticast:sum(packetBytes) 440
attr interpolationmode none
attr source ieee80211Multicast(packetSentToPeer)
attr title "packets sent: multicast, sum(packetBytes)"
scalar Network9.edge[0].wlan[0].mac.dcf packetSentToPeerBroadcast:count 5
attr interpolationmode none
attr source ieee80211Broadcast(packetSentToPeer)
attr title "packets sent: broadcast , count"
scalar Network9.edge[0].wlan[0].mac.dcf packetSentToPeerBroadcast:sum(packetBytes) 440
attr interpolationmode none
attr source ieee80211Broadcast(packetSentToPeer)
attr title "packets sent: broadcast , sum(packetBytes)"
scalar Network9.edge[0].wlan[0].mac.dcf packetSentToPeerWithRetry:count 2
attr interpolationmode none
attr source ieee80211Retry(packetSentToPeer)
attr title "packets sent: with retry, count"
scalar Network9.edge[0].wlan[0].mac.dcf packetSentToPeerWithRetry:sum(packetBytes) 248
attr interpolationmode none
attr source ieee80211Retry(packetSentToPeer)
attr title "packets sent: with retry, sum(packetBytes)"
scalar Network9.edge[0].wlan[0].mac.dcf packetSentToPeerWithoutRetry:count 161
attr interpolationmode none
attr source ieee80211NotRetry(packetSentToPeer)
attr title "packets sent: without retry, count"
scalar Network9.edge[0].wlan[0].mac.dcf packetSentToPeerWithoutRetry:sum(packetBytes) 15284
attr interpolationmode none
attr source ieee80211NotRetry(packetSentToPeer)
attr title "packets sent: without retry, sum(packetBytes)"
scalar Network9.edge[0].wlan[0].mac.dcf packetDrop:count 944
attr interpolationmode none
attr source packetDropped
attr title "packet drops, count"
scalar Network9.edge[0].wlan[0].mac.dcf packetDrop:sum(packetBytes) 83966
attr interpolationmode none
attr source packetDropped
attr title "packet drops, sum(packetBytes)"
scalar Network9.edge[0].wlan[0].mac.dcf packetDropNotAddressedToUs:count 943
attr interpolationmode none
attr source packetDropReasonIsNotAddressedToUs(packetDropped)
attr title "packet drops: not addressed to us, count"
scalar Network9.edge[0].wlan[0].mac.dcf packetDropNotAddressedToUs:sum(packetBytes) 83802
attr interpolationmode none
attr source packetDropReasonIsNotAddressedToUs(packetDropped)
attr title "packet drops: not addressed to us, sum(packetBytes)"
scalar Network9.edge[0].wlan[0].mac.dcf packetDropQueueOverflow:count 0
attr interpolationmode none
attr source packetDropReasonIsQueueOverflow(packetDropped)
attr title "packet drops: queue overflow, count"
scalar Network9.edge[0].wlan[0].mac.dcf packetDropQueueOverflow:sum(packetBytes) 0
attr interpolationmode none
attr source packetDropReasonIsQueueOverflow(packetDropped)
attr title "packet drops: queue overflow, sum(packetBytes)"
scalar Network9.edge[0].wlan[0].mac.dcf packetDropRetryLimitReached:count 0
attr interpolationmode none
attr source packetDropReasonIsRetryLimitReached(packetDropped)
attr title "packet drops: retry limit reached, count"
scalar Network9.edge[0].wlan[0].mac.dcf packetDropRetryLimitReached:sum(packetBytes) 0
attr interpolationmode none
attr source packetDropReasonIsRetryLimitReached(packetDropped)
attr title "packet drops: retry limit reached, sum(packetBytes)"
scalar Network9.edge[0].wlan[0].mac.dcf linkBroken:count 0
attr interpolationmode none
attr title "link breaks, count"
scalar Network9.edge[0].wlan[0].mac.dcf frameSequenceFinished:count 93
attr title "finished frame sequences, count"
statistic Network9.edge[0].wlan[0].mac.dcf frameSequenceDuration:histogram
field count 93
field mean 0.00011839954997849
field stddev 1.6699347970542e-005
field min 5.2e-005
field max 0.000126
field sum 0.011011158148
field sqrsum 1.3293720459482e-006
attr source frameSequenceDuration(frameSequenceFinished)
attr title "frame sequence durations, histogram"
bin	-inf	0
bin	3.2e-005	0
bin	3.4e-005	0
bin	3.6e-005	0
bin	3.8e-005	0
bin	4e-005	0
bin	4.2e-005	0
bin	4.4e-005	0
bin	4.6e-005	0
bin	4.8e-005	0
bin	5e-005	5
bin	5.2e-005	0
bin	5.4e-005	0
bin	5.6e-005	0
bin	5.8e-005	0
bin	6e-005	0
bin	6.2e-005	0
bin	6.4e-005	0
bin	6.6e-005	0
bin	6.8e-005	0
bin	7e-005	0
bin	7.2e-005	0
bin	7.4e-005	0
bin	7.6e-005	0
bin	7.8e-005	0
bin	8e-005	0
bin	8.2e-005	0
bin	8.4e-005	0
bin	8.6e-005	0
bin	8.8e-005	0
bin	9e-005	0
bin	9.2e-005	0
bin	9.4e-005	0
bin	9.6e-005	1
bin	9.8e-005	1
bin	0.0001	2
bin	0.000102	0
bin	0.000104	0
bin	0.000106	0
bin	0.000108	0
bin	0.00011	0
bin	0.000112	0
bin	0.000114	0
bin	0.000116	0
bin	0.000118	0
bin	0.00012	0
bin	0.000122	48
bin	0.000124	36
bin	0.000126	0
bin	0.000128	0
bin	0.00013	0
bin	0.000132	0
bin	0.000134	0
bin	0.000136	0
bin	0.000138	0
bin	0.00014	0
bin	0.000142	0
bin	0.000144	0
bin	0.000146	0
statistic Network9.edge[0].wlan[0].mac.dcf frameSequenceNumPackets:histogram
field count 93
field mean 1.9462365591398
field stddev 0.2267727936796
field min 1
field max 2
field sum 181
field sqrsum 357
attr source frameSequenceNumPackets(frameSequenceFinished)
attr title "frame sequences: number of packets, histogram"
bin	-inf	0
bin	0	0
bin	1	5
bin	2	88
bin	3	0
scalar Network9.edge[0].wlan[0].mac packetReceivedFromLower:count 1243
attr interpolationmode none
attr title "packets received from lower layer, count"
scalar Network9.edge[0].wlan[0].mac packetReceivedFromLower:sum(packetBytes) 114582
attr interpolationmode none
attr title "packets received from lower layer, sum(packetBytes)"
scalar Network9.edge[0].wlan[0].mac packetSentToLower:count 163
attr interpolationmode none
attr title "packets sent to lower layer, count"
scalar Network9.edge[0].wlan[0].mac packetSentToLower:sum(packetBytes) 15532
attr interpolationmode none
attr title "packets sent to lower layer, sum(packetBytes)"
scalar Network9.edge[0].wlan[0].mac packetReceivedFromUpper:count 91
attr interpolationmode none
attr title "packets received from upper layer, count"
scalar Network9.edge[0].wlan[0].mac packetReceivedFromUpper:sum(packetBytes) 11756
attr interpolationmode none
attr title "packets received from upper layer, sum(packetBytes)"
scalar Network9.edge[0].wlan[0].mac packetSentToUpper:count 93
attr interpolationmode none
attr title "packets sent to upper layer, count"
scalar Network9.edge[0].wlan[0].mac packetSentToUpper:sum(packetBytes) 10584
attr interpolationmode none
attr title "packets sent to upper layer, sum(packetBytes)"
scalar Network9.edge[0].wlan[0].mac packetDrop:count 1064
attr interpolationmode none
attr source packetDropped
attr title "packet drops, count"
scalar Network9.edge[0].wlan[0].mac packetDrop:sum(packetBytes) 100190
attr interpolationmode none
attr source packetDropped
attr title "packet drops, sum(packetBytes)"
scalar Network9.edge[0].wlan[0].mac packetDropIncorrectlyReceived:count 120
attr interpolationmode none
attr source packetDropReasonIsIncorrectlyReceived(packetDropped)
attr title "packet drops: incorrectly received, count"
scalar Network9.edge[0].wlan[0].mac packetDropIncorrectlyReceived:sum(packetBytes) 16224
attr interpolationmode none
attr source packetDropReasonIsIncorrectlyReceived(packetDropped)
attr title "packet drops: incorrectly received, sum(packetBytes)"
scalar Network9.edge[0].wlan[0].mac packetDropNotAddressedToUs:count 943
attr interpolationmode none
attr source packetDropReasonIsNotAddressedToUs(packetDropped)
attr title "packet drops: not addressed to us, count"
scalar Network9.edge[0].wlan[0].mac packetDropNotAddressedToUs:sum(packetBytes) 83802
attr interpolationmode none
attr source packetDropReasonIsNotAddressedToUs(packetDropped)
attr title "packet drops: not addressed to us, sum(packetBytes)"
scalar Network9.edge[0].wlan[0].mac packetDropQueueOverflow:count 0
attr interpolationmode none
attr source packetDropReasonIsQueueOverflow(packetDropped)
attr title "packet drops: queue overflow, count"
scalar Network9.edge[0].wlan[0].mac packetDropQueueOverflow:sum(packetBytes) 0
attr interpolationmode none
attr source packetDropReasonIsQueueOverflow(packetDropped)
attr title "packet drops: queue overflow, sum(packetBytes)"
scalar Network9.edge[0].wlan[0].mac packetDropRetryLimitReached:count 0
attr interpolationmode none
attr source packetDropReasonIsRetryLimitReached(packetDropped)
attr title "packet drops: retry limit reached, count"
scalar Network9.edge[0].wlan[0].mac packetDropRetryLimitReached:sum(packetBytes) 0
attr interpolationmode none
attr source packetDropReasonIsRetryLimitReached(packetDropped)
attr title "packet drops: retry limit reached, sum(packetBytes)"
scalar Network9.edge[0].wlan[0].mac packetDropDuplicateDetected:count 1
attr interpolationmode none
attr source packetDropReasonIsDuplicateDetected(packetDropped)
attr title "packet drops: duplicate detected, count"
scalar Network9.edge[0].wlan[0].mac packetDropDuplicateDetected:sum(packetBytes) 164
attr interpolationmode none
attr source packetDropReasonIsDuplicateDetected(packetDropped)
attr title "packet drops: duplicate detected, sum(packetBytes)"
scalar Network9.edge[0].wlan[0].mac packetDropOther:count 0
attr interpolationmode none
attr source packetDropReasonIsOther(packetDropped)
attr title "packet drops: other, count"
scalar Network9.edge[0].wlan[0].mac packetDropOther:sum(packetBytes) 0
attr interpolationmode none
attr source packetDropReasonIsOther(packetDropped)
attr title "packet drops: other, sum(packetBytes)"
scalar Network9.edge[0].wlan[0].mac linkBroken:count 0
attr interpolationmode none
attr title "link breaks, count"
statistic Network9.edge[0].wlan[0].radio minSnir:histogram
field count 1243
field mean 9739.7490257105
field stddev 22560.242554948
field min 0.0050145965168939
field max 65622.244339702
field sum 12106508.038958
field sqrsum 750048313696.69
attr source minimumSnir(packetSentToUpper)
attr title "Min SNIR, histogram"
bin	-inf	0
bin	0	825
bin	1000	244
bin	2000	0
bin	3000	0
bin	4000	0
bin	5000	0
bin	6000	0
bin	7000	0
bin	8000	0
bin	9000	0
bin	10000	0
bin	11000	0
bin	12000	0
bin	13000	0
bin	14000	0
bin	15000	0
bin	16000	0
bin	17000	0
bin	18000	0
bin	19000	0
bin	20000	0
bin	21000	0
bin	22000	0
bin	23000	0
bin	24000	0
bin	25000	0
bin	26000	0
bin	27000	0
bin	28000	0
bin	29000	0
bin	30000	0
bin	31000	0
bin	32000	0
bin	33000	0
bin	34000	0
bin	35000	0
bin	36000	0
bin	37000	0
bin	38000	0
bin	39000	0
bin	40000	0
bin	41000	0
bin	42000	0
bin	43000	0
bin	44000	0
bin	45000	0
bin	46000	0
bin	47000	0
bin	48000	0
bin	49000	0
bin	50000	0
bin	51000	0
bin	52000	0
bin	53000	0
bin	54000	0
bin	55000	0
bin	56000	0
bin	57000	0
bin	58000	0
bin	59000	0
bin	60000	0
bin	61000	0
bin	62000	0
bin	63000	0
bin	64000	0
bin	65000	174
bin	66000	0
bin	67000	0
bin	68000	0
bin	69000	0
bin	70000	0
bin	71000	0
bin	72000	0
bin	73000	0
bin	74000	0
bin	75000	0
bin	76000	0
bin	77000	0
bin	78000	0
bin	79000	0
bin	80000	0
bin	81000	0
bin	82000	0
bin	83000	0
statistic Network9.edge[0].wlan[0].radio packetErrorRate:histogram
field count 1243
field mean 0.096540627514079
field stddev 0.29545009836969
field min 0
field max 1
field sum 120
field sqrsum 120
attr source packetErrorRate(packetSentToUpper)
attr title "Packet error rate, histogram"
bin	-inf	0
bin	-0.5	0
bin	-0.48	0
bin	-0.46	0
bin	-0.44	0
bin	-0.42	0
bin	-0.4	0
bin	-0.38	0
bin	-0.36	0
bin	-0.34	0
bin	-0.32	0
bin	-0.3	0
bin	-0.28	0
bin	-0.26	0
bin	-0.24	0
bin	-0.22	0
bin	-0.2	0
bin	-0.18	0
bin	-0.16	0
bin	-0.14	0
bin	-0.12	0
bin	-0.1	0
bin	-0.08	0
bin	-0.06	0
bin	-0.04	0
bin	-0.02	0
bin	0	1123
bin	0.02	0
bin	0.04	0
bin	0.06	0
bin	0.08	0
bin	0.1	0
bin	0.12	0
bin	0.14	0
bin	0.16	0
bin	0.18	0
bin	0.2	0
bin	0.22	0
bin	0.24	0
bin	0.26	0
bin	0.28	0
bin	0.3	0
bin	0.32	0
bin	0.34	0
bin	0.36	0
bin	0.38	0
bin	0.4	0
bin	0.42	0
bin	0.44	0
bin	0.46	0
bin	0.48	0
bin	0.5	0
bin	0.52	0
bin	0.54	0
bin	0.56	0
bin	0.58	0
bin	0.6	0
bin	0.62	0
bin	0.64	0
bin	0.66	0
bin	0.68	0
bin	0.7	0
bin	0.72	0
bin	0.74	0
bin	0.76	0
bin	0.78	0
bin	0.8	0
bin	0.82	0
bin	0.84	0
bin	0.86	0
bin	0.88	0
bin	0.9	0
bin	0.92	0
bin	0.94	0
bin	0.96	0
bin	0.98	0
bin	1	120
bin	1.02	0
statistic Network9.edge[0].wlan[0].radio bitErrorRate:histogram
field count 0
field mean nan
field stddev nan
field min nan
field max nan
field sum 0
field sqrsum 0
attr source bitErrorRate(packetSentToUpper)
attr title "Bit error rate, histogram"
bin	-inf	0
bin	0	0
bin	1	0
statistic Network9.edge[0].wlan[0].radio symbolErrorRate:histogram
field count 0
field mean nan
field stddev nan
field min nan
field max nan
field sum 0
field sqrsum 0
attr source symbolErrorRate(packetSentToUpper)
attr title "Symbol error rate, histogram"
bin	-inf	0
bin	0	0
bin	1	0
scalar Network9.edge[0].wlan[0].radio transmissionState:count 652
attr interpolationmode sample-hold
attr source transmissionStateChanged
attr title "Radio transmission state, count"
scalar Network9.edge[0].wlan[0].radio receptionState:count 2916
attr interpolationmode sample-hold
attr source receptionStateChanged
attr title "Radio reception state, count"
scalar Network9.edge[0].wlan[0].radio radioMode:count 329
attr interpolationmode sample-hold
attr source radioModeChanged
attr title "Radio mode, count"
statistic Network9.edge[0].wlan[0].radio radioChannel:histogram
field count 1
field mean 3
field stddev nan
field min 3
field max 3
field sum 3
field sqrsum 9
attr interpolationmode sample-hold
attr source radioChannelChanged
attr title "Radio channel, histogram"
bin	-inf	0
bin	2	0
bin	3	1
bin	4	0
scalar Network9.edge[0].ipv4.ip packetDropAddressResolutionFailed:count 0
attr interpolationmode none
attr source packetDropReasonIsAddressResolutionFailed(packetDropped)
attr title "packet drop: address resolution failed, count"
scalar Network9.edge[0].ipv4.ip packetDropAddressResolutionFailed:sum(packetBytes) 0
attr interpolationmode none
attr source packetDropReasonIsAddressResolutionFailed(packetDropped)
attr title "packet drop: address resolution failed, sum(packetBytes)"
scalar Network9.edge[0].ipv4.ip packetDropHopLimitReached:count 0
attr interpolationmode none
attr source packetDropReasonIsHopLimitReached(packetDropped)
attr title "packet drop: hop limit reached, count"
scalar Network9.edge[0].ipv4.ip packetDropHopLimitReached:sum(packetBytes) 0
attr interpolationmode none
attr source packetDropReasonIsHopLimitReached(packetDropped)
attr title "packet drop: hop limit reached, sum(packetBytes)"
scalar Network9.edge[0].ipv4.ip packetDropForwardingDisabled:count 0
attr interpolationmode none
attr source packetDropReasonIsForwardingDisabled(packetDropped)
attr title "packet drop: forwarding disabled, count"
scalar Network9.edge[0].ipv4.ip packetDropForwardingDisabled:sum(packetBytes) 0
attr interpolationmode none
attr source packetDropReasonIsForwardingDisabled(packetDropped)
attr title "packet drop: forwarding disabled, sum(packetBytes)"
scalar Network9.edge[0].ipv4.ip packetDropNoInterfaceFound:count 0
attr interpolationmode none
attr source packetDropReasonIsNoInterfaceFound(packetDropped)
attr title "packet drop: no interface found, count"
scalar Network9.edge[0].ipv4.ip packetDropNoInterfaceFound:sum(packetBytes) 0
attr interpolationmode none
attr source packetDropReasonIsNoInterfaceFound(packetDropped)
attr title "packet drop: no interface found, sum(packetBytes)"
scalar Network9.edge[0].ipv4.ip packetDropNoRouteFound:count 0
attr interpolationmode none
attr source packetDropReasonIsNoRouteFound(packetDropped)
attr title "packet drop: no route found, count"
scalar Network9.edge[0].ipv4.ip packetDropNoRouteFound:sum(packetBytes) 0
attr interpolationmode none
attr source packetDropReasonIsNoRouteFound(packetDropped)
attr title "packet drop: no route found, sum(packetBytes)"
scalar Network9.edge[0].ipv4.ip packetDropUndefined:count 0
attr interpolationmode none
attr source packetDropReasonIsUndefined(packetDropped)
attr title "packet drop: undefined, count"
scalar Network9.edge[0].ipv4.ip packetDropUndefined:sum(packetBytes) 0
attr interpolationmode none
attr source packetDropReasonIsUndefined(packetDropped)
attr title "packet drop: undefined, sum(packetBytes)"
scalar Network9.edge[0].udp packetReceived:count 44
attr interpolationmode none
attr source packetReceived
attr title "packets received, count"
scalar Network9.edge[0].udp packetReceived:sum(packetBytes) 2688
attr interpolationmode none
attr source packetReceived
attr title "packets received, sum(packetBytes)"
scalar Network9.edge[0].udp packetSent:count 42
attr interpolationmode none
attr source packetSent
attr title "packets sent, count"
scalar Network9.edge[0].udp packetSent:sum(packetBytes) 3916
attr interpolationmode none
attr source packetSent
attr title "packets sent, sum(packetBytes)"
scalar Network9.edge[0].udp passedUpPk:count 44
attr interpolationmode none
attr source packetSentToUpper
attr title "packets passed up, count"
scalar Network9.edge[0].udp droppedPkWrongPort:count 0
attr interpolationmode none
attr source packetDropReasonIsNoPortFound(packetDropped)
attr title "packets dropped (wrong port), count"
scalar Network9.edge[0].udp droppedPkBadChecksum:count 0
attr interpolationmode none
attr source packetDropReasonIsIncorrectlyReceived(packetDropped)
attr title "packets dropped (checksum error), count"
scalar Network9.edge[0].app[0] packetReceived:count 17
attr interpolationmode none
attr source packetReceived
attr title "packets received, count"
scalar Network9.edge[0].app[0] packetReceived:sum(packetBytes) 1700
attr interpolationmode none
attr source packetReceived
attr title "packets received, sum(packetBytes)"
statistic Network9.edge[0].app[0] rcvdPkLifetime:stats
field count 0
field mean nan
field stddev nan
field min nan
field max nan
field sum 0
field sqrsum 0
attr interpolationmode none
attr source dataAge(packetReceived)
attr title "received packet lifetime, stats"
attr unit s
scalar Network9.edge[0].app[0] packetSent:count 51
attr interpolationmode none
attr source packetSent
attr title "packets sent, count"
scalar Network9.edge[0].app[0] packetSent:sum(packetBytes) 5100
attr interpolationmode none
attr source packetSent
attr title "packets sent, sum(packetBytes)"
scalar Network9.edge[1].lo[0].lo rcvdPkFromHl:count 0
attr interpolationmode none
attr source packetReceivedFromUpper
attr title "packets received from higher layer, count"
scalar Network9.edge[1].lo[0].lo rcvdPkFromHl:sum(packetBytes) 0
attr interpolationmode none
attr source packetReceivedFromUpper
attr title "packets received from higher layer, sum(packetBytes)"
scalar Network9.edge[1].lo[0].lo passedUpPk:count 0
attr interpolationmode none
attr source packetSentToUpper
attr title "packets passed to higher layer, count"
scalar Network9.edge[1].lo[0].lo passedUpPk:sum(packetBytes) 0
attr interpolationmode none
attr source packetSentToUpper
attr title "packets passed to higher layer, sum(packetBytes)"
scalar Network9.edge[1].wlan[0].mac.dcf.channelAccess.pendingQueue packetPopped:count 7
attr interpolationmode none
attr title "packet popped, count"
scalar Network9.edge[1].wlan[0].mac.dcf.channelAccess.pendingQueue packetPopped:sum(packetBytes) 616
attr interpolationmode none
attr title "packet popped, sum(packetBytes)"
statistic Network9.edge[1].wlan[0].mac.dcf.channelAccess.pendingQueue queueingTime:histogram
field count 7
field mean 0.00050807118014286
field stddev 0.00053532974064409
field min 0
field max 0.001489178722
field sum 0.003556498261
field sqrsum 3.5264218559507e-006
attr interpolationmode none
attr source queueingTime(packetPopped)
attr title "queueing times, histogram"
attr unit s
bin	-inf	0
bin	0	1
bin	2e-005	1
bin	4e-005	0
bin	6e-005	0
bin	8e-005	0
bin	0.0001	0
bin	0.00012	0
bin	0.00014	0
bin	0.00016	0
bin	0.00018	0
bin	0.0002	0
bin	0.00022	0
bin	0.00024	2
bin	0.00026	0
bin	0.00028	0
bin	0.0003	0
bin	0.00032	0
bin	0.00034	0
bin	0.00036	0
bin	0.00038	0
bin	0.0004	0
bin	0.00042	0
bin	0.00044	0
bin	0.00046	0
bin	0.00048	0
bin	0.0005	0
bin	0.00052	0
bin	0.00054	0
bin	0.00056	0
bin	0.00058	0
bin	0.0006	0
bin	0.00062	0
bin	0.00064	1
bin	0.00066	0
bin	0.00068	0
bin	0.0007	0
bin	0.00072	0
bin	0.00074	0
bin	0.00076	0
bin	0.00078	0
bin	0.0008	0
bin	0.00082	0
bin	0.00084	0
bin	0.00086	1
bin	0.00088	0
bin	0.0009	0
bin	0.00092	0
bin	0.00094	0
bin	0.00096	0
bin	0.00098	0
bin	0.001	0
bin	0.00102	0
bin	0.00104	0
bin	0.00106	0
bin	0.00108	0
bin	0.0011	0
bin	0.00112	0
bin	0.00114	0
bin	0.00116	0
bin	0.00118	0
bin	0.0012	0
bin	0.00122	0
bin	0.00124	0
bin	0.00126	0
bin	0.00128	0
bin	0.0013	0
bin	0.00132	0
bin	0.00134	0
bin	0.00136	0
bin	0.00138	0
bin	0.0014	0
bin	0.00142	0
bin	0.00144	0
bin	0.00146	0
bin	0.00148	1
bin	0.0015	0
bin	0.00152	0
bin	0.00154	0
bin	0.00156	0
bin	0.00158	0
bin	0.0016	0
bin	0.00162	0
bin	0.00164	0
bin	0.00166	0
bin	0.00168	0
bin	0.0017	0
bin	0.00172	0
bin	0.00174	0
bin	0.00176	0
bin	0.00178	0
bin	0.0018	0
bin	0.00182	0
bin	0.00184	0
bin	0.00186	0
bin	0.00188	0
scalar Network9.edge[1].wlan[0].mac.dcf.channelAccess.pendingQueue queueLength:max 2
attr interpolationmode sample-hold
attr source "count(packetPushed) - count(packetPopped) - count(packetRemoved) - count(packetDropped)"
attr title "queue length, max"
scalar Network9.edge[1].wlan[0].mac.dcf.channelAccess.pendingQueue queueLength:timeavg 0.020580128053211
attr interpolationmode sample-hold
attr source "count(packetPushed) - count(packetPopped) - count(packetRemoved) - count(packetDropped)"
attr title "queue length, timeavg"
scalar Network9.edge[1].wlan[0].mac.dcf.channelAccess.pendingQueue packetPushed:count 7
attr interpolationmode none
attr title "packet pushed, count"
scalar Network9.edge[1].wlan[0].mac.dcf.channelAccess.pendingQueue packetPushed:sum(packetBytes) 616
attr interpolationmode none
attr title "packet pushed, sum(packetBytes)"
scalar Network9.edge[1].wlan[0].mac.dcf.channelAccess.pendingQueue packetDropQueueOverflow:count 0
attr interpolationmode none
attr source packetDropReasonIsQueueOverflow(packetDropped)
attr title "packet drops: queue overflow, count"
scalar Network9.edge[1].wlan[0].mac.dcf.channelAccess.pendingQueue packetDropQueueOverflow:sum(packetBytes) 0
attr interpolationmode none
attr source packetDropReasonIsQueueOverflow(packetDropped)
attr title "packet drops: queue overflow, sum(packetBytes)"
scalar Network9.edge[1].wlan[0].mac.dcf.channelAccess.pendingQueue packetRemoved:count 0
attr interpolationmode none
attr title "packets removed, count"
scalar Network9.edge[1].wlan[0].mac.dcf.channelAccess.pendingQueue packetRemoved:sum(packetBytes) 0
attr interpolationmode none
attr title "packets removed, sum(packetBytes)"
statistic Network9.edge[1].wlan[0].mac.dcf.channelAccess.inProgressFrames queueingTime:histogram
field count 7
field mean 7.4571428571429e-005
field stddev 5.9718386735458e-005
field min 5.2e-005
field max 0.00021
field sum 0.000522
field sqrsum 6.0324e-008
attr interpolationmode none
attr source queueingTime(packetDequeued)
attr title "queueing times, histogram"
bin	-inf	0
bin	1e-005	0
bin	1.5e-005	0
bin	2e-005	0
bin	2.5e-005	0
bin	3e-005	0
bin	3.5e-005	0
bin	4e-005	0
bin	4.5e-005	0
bin	5e-005	6
bin	5.5e-005	0
bin	6e-005	0
bin	6.5e-005	0
bin	7e-005	0
bin	7.5e-005	0
bin	8e-005	0
bin	8.5e-005	0
bin	9e-005	0
bin	9.5e-005	0
bin	0.0001	0
bin	0.000105	0
bin	0.00011	0
bin	0.000115	0
bin	0.00012	0
bin	0.000125	0
bin	0.00013	0
bin	0.000135	0
bin	0.00014	0
bin	0.000145	0
bin	0.00015	0
bin	0.000155	0
bin	0.00016	0
bin	0.000165	0
bin	0.00017	0
bin	0.000175	0
bin	0.00018	0
bin	0.000185	0
bin	0.00019	0
bin	0.000195	0
bin	0.0002	0
bin	0.000205	1
bin	0.00021	0
bin	0.000215	0
bin	0.00022	0
bin	0.000225	0
bin	0.00023	0
bin	0.000235	0
bin	0.00024	0
bin	0.000245	0
bin	0.00025	0
scalar Network9.edge[1].wlan[0].mac.dcf.channelAccess.inProgressFrames queueLength:max 2
attr interpolationmode sample-hold
attr source "count(packetEnqueued) - count(packetDequeued)"
attr title "queue length, max"
scalar Network9.edge[1].wlan[0].mac.dcf.channelAccess.inProgressFrames queueLength:timeavg 0.0030212412841832
attr interpolationmode sample-hold
attr source "count(packetEnqueued) - count(packetDequeued)"
attr title "queue length, timeavg"
scalar Network9.edge[1].wlan[0].mac.dcf.channelAccess.contention stateChanged:count 5862
attr interpolationmode none
attr title "contention state changed, count"
scalar Network9.edge[1].wlan[0].mac.dcf.channelAccess.contention channelAccessGranted:count 7
attr title "channel access granted, count"
scalar Network9.edge[1].wlan[0].mac.dcf.channelAccess channelOwnershipChanged:count 14
attr interpolationmode sample-hold
attr title "channel ownership, count"
scalar Network9.edge[1].wlan[0].mac.dcf.originatorMacDataService packetAggregated:count 0
attr title "packets aggregated, count"
scalar Network9.edge[1].wlan[0].mac.dcf.originatorMacDataService packetFragmented:count 0
attr title "packets fragmented, count"
scalar Network9.edge[1].wlan[0].mac.dcf.recipientMacDataService packetDropDuplicateDetected:count 0
attr interpolationmode none
attr source packetDropReasonIsDuplicateDetected(packetDropped)
attr title "packet drops: duplicate detected, count"
scalar Network9.edge[1].wlan[0].mac.dcf.recipientMacDataService packetDropDuplicateDetected:sum(packetBytes) 0
attr interpolationmode none
attr source packetDropReasonIsDuplicateDetected(packetDropped)
attr title "packet drops: duplicate detected, sum(packetBytes)"
scalar Network9.edge[1].wlan[0].mac.dcf.recipientMacDataService packetDeaggregated:count 0
attr title "packets deaggregated, count"
scalar Network9.edge[1].wlan[0].mac.dcf.recipientMacDataService packetDefragmented:count 20
attr title "packets defragmented, count"
scalar Network9.edge[1].wlan[0].mac.dcf.recoveryProcedure retryLimitReached:count 0
attr title "retry limit reached, count"
scalar Network9.edge[1].wlan[0].mac.dcf packetReceivedFromPeer:count 20
attr interpolationmode none
attr title "packets received, count"
scalar Network9.edge[1].wlan[0].mac.dcf packetReceivedFromPeer:sum(packetBytes) 1760
attr interpolationmode none
attr title "packets received, sum(packetBytes)"
scalar Network9.edge[1].wlan[0].mac.dcf packetReceivedFromPeerUnicast:count 0
attr interpolationmode none
attr source ieee80211Unicast(packetReceivedFromPeer)
attr title "packets received: unicast, count"
scalar Network9.edge[1].wlan[0].mac.dcf packetReceivedFromPeerUnicast:sum(packetBytes) 0
attr interpolationmode none
attr source ieee80211Unicast(packetReceivedFromPeer)
attr title "packets received: unicast, sum(packetBytes)"
scalar Network9.edge[1].wlan[0].mac.dcf packetReceivedFromPeerMulticast:count 20
attr interpolationmode none
attr source ieee80211Multicast(packetReceivedFromPeer)
attr title "packets received: multicast, count"
scalar Network9.edge[1].wlan[0].mac.dcf packetReceivedFromPeerMulticast:sum(packetBytes) 1760
attr interpolationmode none
attr source ieee80211Multicast(packetReceivedFromPeer)
attr title "packets received: multicast, sum(packetBytes)"
scalar Network9.edge[1].wlan[0].mac.dcf packetReceivedFromPeerBroadcast:count 20
attr interpolationmode none
attr source ieee80211Broadcast(packetReceivedFromPeer)
attr title "packets received: broadcast, count"
scalar Network9.edge[1].wlan[0].mac.dcf packetReceivedFromPeerBroadcast:sum(packetBytes) 1760
attr interpolationmode none
attr source ieee80211Broadcast(packetReceivedFromPeer)
attr title "packets received: broadcast, sum(packetBytes)"
scalar Network9.edge[1].wlan[0].mac.dcf packetReceivedFromPeerWithRetry:count 0
attr interpolationmode none
attr source ieee80211Retry(packetReceivedFromPeer)
attr title "packets received: with retry, count"
scalar Network9.edge[1].wlan[0].mac.dcf packetReceivedFromPeerWithRetry:sum(packetBytes) 0
attr interpolationmode none
attr source ieee80211Retry(packetReceivedFromPeer)
attr title "packets received: with retry, sum(packetBytes)"
scalar Network9.edge[1].wlan[0].mac.dcf packetReceivedFromPeerWithoutRetry:count 20
attr interpolationmode none
attr source ieee80211NotRetry(packetReceivedFromPeer)
attr title "packets received: without retry, count"
scalar Network9.edge[1].wlan[0].mac.dcf packetReceivedFromPeerWithoutRetry:sum(packetBytes) 1760
attr interpolationmode none
attr source ieee80211NotRetry(packetReceivedFromPeer)
attr title "packets received: without retry, sum(packetBytes)"
scalar Network9.edge[1].wlan[0].mac.dcf packetSentToPeer:count 7
attr interpolationmode none
attr title "packets sent, count"
scalar Network9.edge[1].wlan[0].mac.dcf packetSentToPeer:sum(packetBytes) 616
attr interpolationmode none
attr title "packets sent, sum(packetBytes)"
scalar Network9.edge[1].wlan[0].mac.dcf packetSentToPeerUnicast:count 0
attr interpolationmode none
attr source ieee80211Unicast(packetSentToPeer)
attr title "packets sent: unicast, count"
scalar Network9.edge[1].wlan[0].mac.dcf packetSentToPeerUnicast:sum(packetBytes) 0
attr interpolationmode none
attr source ieee80211Unicast(packetSentToPeer)
attr title "packets sent: unicast, sum(packetBytes)"
scalar Network9.edge[1].wlan[0].mac.dcf packetSentToPeerMulticast:count 7
attr interpolationmode none
attr source ieee80211Multicast(packetSentToPeer)
attr title "packets sent: multicast, count"
scalar Network9.edge[1].wlan[0].mac.dcf packetSentToPeerMulticast:sum(packetBytes) 616
attr interpolationmode none
attr source ieee80211Multicast(packetSentToPeer)
attr title "packets sent: multicast, sum(packetBytes)"
scalar Network9.edge[1].wlan[0].mac.dcf packetSentToPeerBroadcast:count 7
attr interpolationmode none
attr source ieee80211Broadcast(packetSentToPeer)
attr title "packets sent: broadcast , count"
scalar Network9.edge[1].wlan[0].mac.dcf packetSentToPeerBroadcast:sum(packetBytes) 616
attr interpolationmode none
attr source ieee80211Broadcast(packetSentToPeer)
attr title "packets sent: broadcast , sum(packetBytes)"
scalar Network9.edge[1].wlan[0].mac.dcf packetSentToPeerWithRetry:count 0
attr interpolationmode none
attr source ieee80211Retry(packetSentToPeer)
attr title "packets sent: with retry, count"
scalar Network9.edge[1].wlan[0].mac.dcf packetSentToPeerWithRetry:sum(packetBytes) 0
attr interpolationmode none
attr source ieee80211Retry(packetSentToPeer)
attr title "packets sent: with retry, sum(packetBytes)"
scalar Network9.edge[1].wlan[0].mac.dcf packetSentToPeerWithoutRetry:count 7
attr interpolationmode none
attr source ieee80211NotRetry(packetSentToPeer)
attr title "packets sent: without retry, count"
scalar Network9.edge[1].wlan[0].mac.dcf packetSentToPeerWithoutRetry:sum(packetBytes) 616
attr interpolationmode none
attr source ieee80211NotRetry(packetSentToPeer)
attr title "packets sent: without retry, sum(packetBytes)"
scalar Network9.edge[1].wlan[0].mac.dcf packetDrop:count 1259
attr interpolationmode none
attr source packetDropped
attr title "packet drops, count"
scalar Network9.edge[1].wlan[0].mac.dcf packetDrop:sum(packetBytes) 111666
attr interpolationmode none
attr source packetDropped
attr title "packet drops, sum(packetBytes)"
scalar Network9.edge[1].wlan[0].mac.dcf packetDropNotAddressedToUs:count 1259
attr interpolationmode none
attr source packetDropReasonIsNotAddressedToUs(packetDropped)
attr title "packet drops: not addressed to us, count"
scalar Network9.edge[1].wlan[0].mac.dcf packetDropNotAddressedToUs:sum(packetBytes) 111666
attr interpolationmode none
attr source packetDropReasonIsNotAddressedToUs(packetDropped)
attr title "packet drops: not addressed to us, sum(packetBytes)"
scalar Network9.edge[1].wlan[0].mac.dcf packetDropQueueOverflow:count 0
attr interpolationmode none
attr source packetDropReasonIsQueueOverflow(packetDropped)
attr title "packet drops: queue overflow, count"
scalar Network9.edge[1].wlan[0].mac.dcf packetDropQueueOverflow:sum(packetBytes) 0
attr interpolationmode none
attr source packetDropReasonIsQueueOverflow(packetDropped)
attr title "packet drops: queue overflow, sum(packetBytes)"
scalar Network9.edge[1].wlan[0].mac.dcf packetDropRetryLimitReached:count 0
attr interpolationmode none
attr source packetDropReasonIsRetryLimitReached(packetDropped)
attr title "packet drops: retry limit reached, count"
scalar Network9.edge[1].wlan[0].mac.dcf packetDropRetryLimitReached:sum(packetBytes) 0
attr interpolationmode none
attr source packetDropReasonIsRetryLimitReached(packetDropped)
attr title "packet drops: retry limit reached, sum(packetBytes)"
scalar Network9.edge[1].wlan[0].mac.dcf linkBroken:count 0
attr interpolationmode none
attr title "link breaks, count"
scalar Network9.edge[1].wlan[0].mac.dcf frameSequenceFinished:count 7
attr title "finished frame sequences, count"
statistic Network9.edge[1].wlan[0].mac.dcf frameSequenceDuration:histogram
field count 7
field mean 5.2e-005
field stddev 0
field min 5.2e-005
field max 5.2e-005
field sum 0.000364
field sqrsum 1.8928e-008
attr source frameSequenceDuration(frameSequenceFinished)
attr title "frame sequence durations, histogram"
bin	-inf	0
bin	0	7
bin	0.01	0
bin	0.02	0
bin	0.03	0
bin	0.04	0
bin	0.05	0
bin	0.06	0
bin	0.07	0
bin	0.08	0
bin	0.09	0
bin	0.1	0
bin	0.11	0
bin	0.12	0
bin	0.13	0
bin	0.14	0
bin	0.15	0
bin	0.16	0
bin	0.17	0
bin	0.18	0
bin	0.19	0
bin	0.2	0
bin	0.21	0
bin	0.22	0
bin	0.23	0
bin	0.24	0
bin	0.25	0
bin	0.26	0
bin	0.27	0
bin	0.28	0
bin	0.29	0
bin	0.3	0
bin	0.31	0
bin	0.32	0
bin	0.33	0
bin	0.34	0
bin	0.35	0
bin	0.36	0
bin	0.37	0
bin	0.38	0
bin	0.39	0
bin	0.4	0
bin	0.41	0
bin	0.42	0
bin	0.43	0
bin	0.44	0
bin	0.45	0
bin	0.46	0
bin	0.47	0
bin	0.48	0
bin	0.49	0
bin	0.5	0
bin	0.51	0
statistic Network9.edge[1].wlan[0].mac.dcf frameSequenceNumPackets:histogram
field count 7
field mean 1
field stddev 0
field min 1
field max 1
field sum 7
field sqrsum 7
attr source frameSequenceNumPackets(frameSequenceFinished)
attr title "frame sequences: number of packets, histogram"
bin	-inf	0
bin	0	0
bin	1	7
bin	2	0
scalar Network9.edge[1].wlan[0].mac packetReceivedFromLower:count 1400
attr interpolationmode none
attr title "packets received from lower layer, count"
scalar Network9.edge[1].wlan[0].mac packetReceivedFromLower:sum(packetBytes) 130038
attr interpolationmode none
attr title "packets received from lower layer, sum(packetBytes)"
scalar Network9.edge[1].wlan[0].mac packetSentToLower:count 7
attr interpolationmode none
attr title "packets sent to lower layer, count"
scalar Network9.edge[1].wlan[0].mac packetSentToLower:sum(packetBytes) 616
attr interpolationmode none
attr title "packets sent to lower layer, sum(packetBytes)"
scalar Network9.edge[1].wlan[0].mac packetReceivedFromUpper:count 7
attr interpolationmode none
attr title "packets received from upper layer, count"
scalar Network9.edge[1].wlan[0].mac packetReceivedFromUpper:sum(packetBytes) 420
attr interpolationmode none
attr title "packets received from upper layer, sum(packetBytes)"
scalar Network9.edge[1].wlan[0].mac packetSentToUpper:count 20
attr interpolationmode none
attr title "packets sent to upper layer, count"
scalar Network9.edge[1].wlan[0].mac packetSentToUpper:sum(packetBytes) 1200
attr interpolationmode none
attr title "packets sent to upper layer, sum(packetBytes)"
scalar Network9.edge[1].wlan[0].mac packetDrop:count 1380
attr interpolationmode none
attr source packetDropped
attr title "packet drops, count"
scalar Network9.edge[1].wlan[0].mac packetDrop:sum(packetBytes) 128278
attr interpolationmode none
attr source packetDropped
attr title "packet drops, sum(packetBytes)"
scalar Network9.edge[1].wlan[0].mac packetDropIncorrectlyReceived:count 121
attr interpolationmode none
attr source packetDropReasonIsIncorrectlyReceived(packetDropped)
attr title "packet drops: incorrectly received, count"
scalar Network9.edge[1].wlan[0].mac packetDropIncorrectlyReceived:sum(packetBytes) 16612
attr interpolationmode none
attr source packetDropReasonIsIncorrectlyReceived(packetDropped)
attr title "packet drops: incorrectly received, sum(packetBytes)"
scalar Network9.edge[1].wlan[0].mac packetDropNotAddressedToUs:count 1259
attr interpolationmode none
attr source packetDropReasonIsNotAddressedToUs(packetDropped)
attr title "packet drops: not addressed to us, count"
scalar Network9.edge[1].wlan[0].mac packetDropNotAddressedToUs:sum(packetBytes) 111666
attr interpolationmode none
attr source packetDropReasonIsNotAddressedToUs(packetDropped)
attr title "packet drops: not addressed to us, sum(packetBytes)"
[...]
attr title "packets received, sum(packetBytes)"
scalar Network9.meco[0].wlan[0].mac.dcf packetReceivedFromPeerUnicast:count 263
attr interpolationmode none
attr source ieee80211Unicast(packetReceivedFromPeer)
attr title "packets received: unicast, count"
scalar Network9.meco[0].wlan[0].mac.dcf packetReceivedFromPeerUnicast:sum(packetBytes) 27232
attr interpolationmode none
attr source ieee80211Unicast(packetReceivedFromPeer)
attr title "packets received: unicast, sum(packetBytes)"
scalar Network9.meco[0].wlan[0].mac.dcf packetReceivedFromPeerMulticast:count 23
attr interpolationmode none
attr source ieee80211Multicast(packetReceivedFromPeer)
attr title "packets received: multicast, count"
scalar Network9.meco[0].wlan[0].mac.dcf packetReceivedFromPeerMulticast:sum(packetBytes) 2024
attr interpolationmode none
attr source ieee80211Multicast(packetReceivedFromPeer)
attr title "packets received: multicast, sum(packetBytes)"
scalar Network9.meco[0].wlan[0].mac.dcf packetReceivedFromPeerBroadcast:count 23
attr interpolationmode none
attr source ieee80211Broadcast(packetReceivedFromPeer)
attr title "packets received: broadcast, count"
scalar Network9.meco[0].wlan[0].mac.dcf packetReceivedFromPeerBroadcast:sum(packetBytes) 2024
attr interpolationmode none
attr source ieee80211Broadcast(packetReceivedFromPeer)
attr title "packets received: broadcast, sum(packetBytes)"
scalar Network9.meco[0].wlan[0].mac.dcf packetReceivedFromPeerWithRetry:count 25
attr interpolationmode none
attr source ieee80211Retry(packetReceivedFromPeer)
attr title "packets received: with retry, count"
scalar Network9.meco[0].wlan[0].mac.dcf packetReceivedFromPeerWithRetry:sum(packetBytes) 4100
attr interpolationmode none
attr source ieee80211Retry(packetReceivedFromPeer)
attr title "packets received: with retry, sum(packetBytes)"
scalar Network9.meco[0].wlan[0].mac.dcf packetReceivedFromPeerWithoutRetry:count 261
attr interpolationmode none
attr source ieee80211NotRetry(packetReceivedFromPeer)
attr title "packets received: without retry, count"
scalar Network9.meco[0].wlan[0].mac.dcf packetReceivedFromPeerWithoutRetry:sum(packetBytes) 25156
attr interpolationmode none
attr source ieee80211NotRetry(packetReceivedFromPeer)
attr title "packets received: without retry, sum(packetBytes)"
scalar Network9.meco[0].wlan[0].mac.dcf packetSentToPeer:count 321
attr interpolationmode none
attr title "packets sent, count"
scalar Network9.meco[0].wlan[0].mac.dcf packetSentToPeer:sum(packetBytes) 28698
attr interpolationmode none
attr title "packets sent, sum(packetBytes)"
scalar Network9.meco[0].wlan[0].mac.dcf packetSentToPeerUnicast:count 320
attr interpolationmode none
attr source ieee80211Unicast(packetSentToPeer)
attr title "packets sent: unicast, count"
scalar Network9.meco[0].wlan[0].mac.dcf packetSentToPeerUnicast:sum(packetBytes) 28610
attr interpolationmode none
attr source ieee80211Unicast(packetSentToPeer)
attr title "packets sent: unicast, sum(packetBytes)"
scalar Network9.meco[0].wlan[0].mac.dcf packetSentToPeerMulticast:count 1
attr interpolationmode none
attr source ieee80211Multicast(packetSentToPeer)
attr title "packets sent: multicast, count"
scalar Network9.meco[0].wlan[0].mac.dcf packetSentToPeerMulticast:sum(packetBytes) 88
attr interpolationmode none
attr source ieee80211Multicast(packetSentToPeer)
attr title "packets sent: multicast, sum(packetBytes)"
scalar Network9.meco[0].wlan[0].mac.dcf packetSentToPeerBroadcast:count 1
attr interpolationmode none
attr source ieee80211Broadcast(packetSentToPeer)
attr title "packets sent: broadcast , count"
scalar Network9.meco[0].wlan[0].mac.dcf packetSentToPeerBroadcast:sum(packetBytes) 88
attr interpolationmode none
attr source ieee80211Broadcast(packetSentToPeer)
attr title "packets sent: broadcast , sum(packetBytes)"
scalar Network9.meco[0].wlan[0].mac.dcf packetSentToPeerWithRetry:count 57
attr interpolationmode none
attr source ieee80211Retry(packetSentToPeer)
attr title "packets sent: with retry, count"
scalar Network9.meco[0].wlan[0].mac.dcf packetSentToPeerWithRetry:sum(packetBytes) 9348
attr interpolationmode none
attr source ieee80211Retry(packetSentToPeer)
attr title "packets sent: with retry, sum(packetBytes)"
scalar Network9.meco[0].wlan[0].mac.dcf packetSentToPeerWithoutRetry:count 264
attr interpolationmode none
attr source ieee80211NotRetry(packetSentToPeer)
attr title "packets sent: without retry, count"
scalar Network9.meco[0].wlan[0].mac.dcf packetSentToPeerWithoutRetry:sum(packetBytes) 19350
attr interpolationmode none
attr source ieee80211NotRetry(packetSentToPeer)
attr title "packets sent: without retry, sum(packetBytes)"
scalar Network9.meco[0].wlan[0].mac.dcf packetDrop:count 500
attr interpolationmode none
attr source packetDropped
attr title "packet drops, count"
scalar Network9.meco[0].wlan[0].mac.dcf packetDrop:sum(packetBytes) 49540
attr interpolationmode none
attr source packetDropped
attr title "packet drops, sum(packetBytes)"
scalar Network9.meco[0].wlan[0].mac.dcf packetDropNotAddressedToUs:count 491
attr interpolationmode none
attr source packetDropReasonIsNotAddressedToUs(packetDropped)
attr title "packet drops: not addressed to us, count"
scalar Network9.meco[0].wlan[0].mac.dcf packetDropNotAddressedToUs:sum(packetBytes) 48064
attr interpolationmode none
attr source packetDropReasonIsNotAddressedToUs(packetDropped)
attr title "packet drops: not addressed to us, sum(packetBytes)"
scalar Network9.meco[0].wlan[0].mac.dcf packetDropQueueOverflow:count 0
attr interpolationmode none
attr source packetDropReasonIsQueueOverflow(packetDropped)
attr title "packet drops: queue overflow, count"
scalar Network9.meco[0].wlan[0].mac.dcf packetDropQueueOverflow:sum(packetBytes) 0
attr interpolationmode none
attr source packetDropReasonIsQueueOverflow(packetDropped)
attr title "packet drops: queue overflow, sum(packetBytes)"
scalar Network9.meco[0].wlan[0].mac.dcf packetDropRetryLimitReached:count 0
attr interpolationmode none
attr source packetDropReasonIsRetryLimitReached(packetDropped)
attr title "packet drops: retry limit reached, count"
scalar Network9.meco[0].wlan[0].mac.dcf packetDropRetryLimitReached:sum(packetBytes) 0
attr interpolationmode none
attr source packetDropReasonIsRetryLimitReached(packetDropped)
attr title "packet drops: retry limit reached, sum(packetBytes)"
scalar Network9.meco[0].wlan[0].mac.dcf linkBroken:count 0
attr interpolationmode none
attr title "link breaks, count"
scalar Network9.meco[0].wlan[0].mac.dcf frameSequenceFinished:count 164
attr title "finished frame sequences, count"
statistic Network9.meco[0].wlan[0].mac.dcf frameSequenceDuration:histogram
field count 164
field mean 0.00012432372371951
field stddev 1.2008238898115e-005
field min 5.2e-005
field max 0.000249648708
field sum 0.02038909069
field sqrsum 2.5583519194694e-006
attr source frameSequenceDuration(frameSequenceFinished)
attr title "frame sequence durations, histogram"
bin	-inf	0
bin	3.2e-005	0
bin	3.6e-005	0
bin	4e-005	0
bin	4.4e-005	0
bin	4.8e-005	1
bin	5.2e-005	0
bin	5.6e-005	0
bin	6e-005	0
bin	6.4e-005	0
bin	6.8e-005	0
bin	7.2e-005	0
bin	7.6e-005	0
bin	8e-005	0
bin	8.4e-005	0
bin	8.8e-005	0
bin	9.2e-005	0
bin	9.6e-005	2
bin	0.0001	2
bin	0.000104	0
bin	0.000108	0
bin	0.000112	0
bin	0.000116	0
bin	0.00012	68
bin	0.000124	90
bin	0.000128	0
bin	0.000132	0
bin	0.000136	0
bin	0.00014	0
bin	0.000144	0
bin	0.000148	0
bin	0.000152	0
bin	0.000156	0
bin	0.00016	0
bin	0.000164	0
bin	0.000168	0
bin	0.000172	0
bin	0.000176	0
bin	0.00018	0
bin	0.000184	0
bin	0.000188	0
bin	0.000192	0
bin	0.000196	0
bin	0.0002	0
bin	0.000204	0
bin	0.000208	0
bin	0.000212	0
bin	0.000216	0
bin	0.00022	0
bin	0.000224	0
bin	0.000228	0
bin	0.000232	0
bin	0.000236	0
bin	0.00024	0
bin	0.000244	0
bin	0.000248	1
bin	0.000252	0
statistic Network9.meco[0].wlan[0].mac.dcf frameSequenceNumPackets:histogram
field count 164
field mean 1.9939024390244
field stddev 0.078086880944303
field min 1
field max 2
field sum 327
field sqrsum 653
attr source frameSequenceNumPackets(frameSequenceFinished)
attr title "frame sequences: number of packets, histogram"
bin	-inf	0
bin	0	0
bin	1	1
bin	2	163
bin	3	0
scalar Network9.meco[0].wlan[0].mac packetReceivedFromLower:count 841
attr interpolationmode none
attr title "packets received from lower layer, count"
scalar Network9.meco[0].wlan[0].mac packetReceivedFromLower:sum(packetBytes) 84732
attr interpolationmode none
attr title "packets received from lower layer, sum(packetBytes)"
scalar Network9.meco[0].wlan[0].mac packetSentToLower:count 321
attr interpolationmode none
attr title "packets sent to lower layer, count"
scalar Network9.meco[0].wlan[0].mac packetSentToLower:sum(packetBytes) 28698
attr interpolationmode none
attr title "packets sent to lower layer, sum(packetBytes)"
scalar Network9.meco[0].wlan[0].mac packetReceivedFromUpper:count 107
attr interpolationmode none
attr title "packets received from upper layer, count"
scalar Network9.meco[0].wlan[0].mac packetReceivedFromUpper:sum(packetBytes) 14156
attr interpolationmode none
attr title "packets received from upper layer, sum(packetBytes)"
scalar Network9.meco[0].wlan[0].mac packetSentToUpper:count 171
attr interpolationmode none
attr title "packets sent to upper layer, count"
scalar Network9.meco[0].wlan[0].mac packetSentToUpper:sum(packetBytes) 21508
attr interpolationmode none
attr title "packets sent to upper layer, sum(packetBytes)"
scalar Network9.meco[0].wlan[0].mac packetDrop:count 563
attr interpolationmode none
attr source packetDropped
attr title "packet drops, count"
scalar Network9.meco[0].wlan[0].mac packetDrop:sum(packetBytes) 56788
attr interpolationmode none
attr source packetDropped
attr title "packet drops, sum(packetBytes)"
scalar Network9.meco[0].wlan[0].mac packetDropIncorrectlyReceived:count 63
attr interpolationmode none
attr source packetDropReasonIsIncorrectlyReceived(packetDropped)
attr title "packet drops: incorrectly received, count"
scalar Network9.meco[0].wlan[0].mac packetDropIncorrectlyReceived:sum(packetBytes) 7248
attr interpolationmode none
attr source packetDropReasonIsIncorrectlyReceived(packetDropped)
attr title "packet drops: incorrectly received, sum(packetBytes)"
scalar Network9.meco[0].wlan[0].mac packetDropNotAddressedToUs:count 491
attr interpolationmode none
attr source packetDropReasonIsNotAddressedToUs(packetDropped)
attr title "packet drops: not addressed to us, count"
scalar Network9.meco[0].wlan[0].mac packetDropNotAddressedToUs:sum(packetBytes) 48064
attr interpolationmode none
attr source packetDropReasonIsNotAddressedToUs(packetDropped)
attr title "packet drops: not addressed to us, sum(packetBytes)"
scalar Network9.meco[0].wlan[0].mac packetDropQueueOverflow:count 0
attr interpolationmode none
attr source packetDropReasonIsQueueOverflow(packetDropped)
attr title "packet drops: queue overflow, count"
scalar Network9.meco[0].wlan[0].mac packetDropQueueOverflow:sum(packetBytes) 0
attr interpolationmode none
attr source packetDropReasonIsQueueOverflow(packetDropped)
attr title "packet drops: queue overflow, sum(packetBytes)"
scalar Network9.meco[0].wlan[0].mac packetDropRetryLimitReached:count 0
attr interpolationmode none
attr source packetDropReasonIsRetryLimitReached(packetDropped)
attr title "packet drops: retry limit reached, count"
scalar Network9.meco[0].wlan[0].mac packetDropRetryLimitReached:sum(packetBytes) 0
attr interpolationmode none
attr source packetDropReasonIsRetryLimitReached(packetDropped)
attr title "packet drops: retry limit reached, sum(packetBytes)"
scalar Network9.meco[0].wlan[0].mac packetDropDuplicateDetected:count 9
attr interpolationmode none
attr source packetDropReasonIsDuplicateDetected(packetDropped)
attr title "packet drops: duplicate detected, count"
scalar Network9.meco[0].wlan[0].mac packetDropDuplicateDetected:sum(packetBytes) 1476
attr interpolationmode none
attr source packetDropReasonIsDuplicateDetected(packetDropped)
attr title "packet drops: duplicate detected, sum(packetBytes)"
scalar Network9.meco[0].wlan[0].mac packetDropOther:count 0
attr interpolationmode none
attr source packetDropReasonIsOther(packetDropped)
attr title "packet drops: other, count"
scalar Network9.meco[0].wlan[0].mac packetDropOther:sum(packetBytes) 0
attr interpolationmode none
attr source packetDropReasonIsOther(packetDropped)
attr title "packet drops: other, sum(packetBytes)"
scalar Network9.meco[0].wlan[0].mac linkBroken:count 0
attr interpolationmode none
attr title "link breaks, count"
statistic Network9.meco[0].wlan[0].radio minSnir:histogram
field count 841
field mean 452.78406004629
field stddev 179.64495473346
field min 0.60745020443053
field max 664.36220918394
field sum 380791.39449893
field sqrsum 199525013.83131
attr source minimumSnir(packetSentToUpper)
attr title "Min SNIR, histogram"
bin	-inf	0
bin	0	63
bin	10	0
bin	20	0
bin	30	0
bin	40	0
bin	50	0
bin	60	0
bin	70	0
bin	80	0
bin	90	0
bin	100	0
bin	110	0
bin	120	0
bin	130	0
bin	140	0
bin	150	0
bin	160	0
bin	170	0
bin	180	0
bin	190	0
bin	200	0
bin	210	0
bin	220	0
bin	230	0
bin	240	0
bin	250	0
bin	260	0
bin	270	0
bin	280	0
bin	290	0
bin	300	0
bin	310	0
bin	320	160
bin	330	0
bin	340	0
bin	350	174
bin	360	0
bin	370	0
bin	380	0
bin	390	0
bin	400	0
bin	410	0
bin	420	0
bin	430	0
bin	440	0
bin	450	0
bin	460	0
bin	470	0
bin	480	0
bin	490	0
bin	500	0
bin	510	0
bin	520	0
bin	530	0
bin	540	0
bin	550	0
bin	560	0
bin	570	128
bin	580	0
bin	590	243
bin	600	0
bin	610	0
bin	620	0
bin	630	0
bin	640	0
bin	650	0
bin	660	73
bin	670	0
bin	680	0
bin	690	0
bin	700	0
bin	710	0
bin	720	0
bin	730	0
bin	740	0
bin	750	0
bin	760	0
bin	770	0
bin	780	0
bin	790	0
bin	800	0
bin	810	0
bin	820	0
bin	830	0
bin	840	0
statistic Network9.meco[0].wlan[0].radio packetErrorRate:histogram
field count 841
field mean 0.074910820451843
field stddev 0.26340404033749
field min 0
field max 1
field sum 63
field sqrsum 63
attr source packetErrorRate(packetSentToUpper)
attr title "Packet error rate, histogram"
bin	-inf	0
bin	0	778
bin	1	63
bin	2	0
statistic Network9.meco[0].wlan[0].radio bitErrorRate:histogram
field count 0
field mean nan
field stddev nan
field min nan
field max nan
field sum 0
field sqrsum 0
attr source bitErrorRate(packetSentToUpper)
attr title "Bit error rate, histogram"
bin	-inf	0
bin	0	0
bin	1	0
statistic Network9.meco[0].wlan[0].radio symbolErrorRate:histogram
field count 0
field mean nan
field stddev nan
field min nan
field max nan
field sum 0
field sqrsum 0
attr source symbolErrorRate(packetSentToUpper)
attr title "Symbol error rate, histogram"
bin	-inf	0
bin	0	0
bin	1	0
scalar Network9.meco[0].wlan[0].radio transmissionState:count 1284
attr interpolationmode sample-hold
attr source transmissionStateChanged
attr title "Radio transmission state, count"
scalar Network9.meco[0].wlan[0].radio receptionState:count 2339
attr interpolationmode sample-hold
attr source receptionStateChanged
attr title "Radio reception state, count"
scalar Network9.meco[0].wlan[0].radio radioMode:count 645
attr interpolationmode sample-hold
attr source radioModeChanged
attr title "Radio mode, count"
statistic Network9.meco[0].wlan[0].radio radioChannel:histogram
field count 1
field mean 3
field stddev nan
field min 3
field max 3
field sum 3
field sqrsum 9
attr interpolationmode sample-hold
attr source radioChannelChanged
attr title "Radio channel, histogram"
bin	-inf	0
bin	2	0
bin	3	1
bin	4	0
scalar Network9.meco[0].ipv4.ip packetDropAddressResolutionFailed:count 0
attr interpolationmode none
attr source packetDropReasonIsAddressResolutionFailed(packetDropped)
attr title "packet drop: address resolution failed, count"
scalar Network9.meco[0].ipv4.ip packetDropAddressResolutionFailed:sum(packetBytes) 0
attr interpolationmode none
attr source packetDropReasonIsAddressResolutionFailed(packetDropped)
attr title "packet drop: address resolution failed, sum(packetBytes)"
scalar Network9.meco[0].ipv4.ip packetDropHopLimitReached:count 0
attr interpolationmode none
attr source packetDropReasonIsHopLimitReached(packetDropped)
attr title "packet drop: hop limit reached, count"
scalar Network9.meco[0].ipv4.ip packetDropHopLimitReached:sum(packetBytes) 0
attr interpolationmode none
attr source packetDropReasonIsHopLimitReached(packetDropped)
attr title "packet drop: hop limit reached, sum(packetBytes)"
scalar Network9.meco[0].ipv4.ip packetDropForwardingDisabled:count 0
attr interpolationmode none
attr source packetDropReasonIsForwardingDisabled(packetDropped)
attr title "packet drop: forwarding disabled, count"
scalar Network9.meco[0].ipv4.ip packetDropForwardingDisabled:sum(packetBytes) 0
attr interpolationmode none
attr source packetDropReasonIsForwardingDisabled(packetDropped)
attr title "packet drop: forwarding disabled, sum(packetBytes)"
scalar Network9.meco[0].ipv4.ip packetDropNoInterfaceFound:count 0
attr interpolationmode none
attr source packetDropReasonIsNoInterfaceFound(packetDropped)
attr title "packet drop: no interface found, count"
scalar Network9.meco[0].ipv4.ip packetDropNoInterfaceFound:sum(packetBytes) 0
attr interpolationmode none
attr source packetDropReasonIsNoInterfaceFound(packetDropped)
attr title "packet drop: no interface found, sum(packetBytes)"
scalar Network9.meco[0].ipv4.ip packetDropNoRouteFound:count 0
attr interpolationmode none
attr source packetDropReasonIsNoRouteFound(packetDropped)
attr title "packet drop: no route found, count"
scalar Network9.meco[0].ipv4.ip packetDropNoRouteFound:sum(packetBytes) 0
attr interpolationmode none
attr source packetDropReasonIsNoRouteFound(packetDropped)
attr title "packet drop: no route found, sum(packetBytes)"
scalar Network9.meco[0].ipv4.ip packetDropUndefined:count 0
attr interpolationmode none
attr source packetDropReasonIsUndefined(packetDropped)
attr title "packet drop: undefined, count"
scalar Network9.meco[0].ipv4.ip packetDropUndefined:sum(packetBytes) 0
attr interpolationmode none
attr source packetDropReasonIsUndefined(packetDropped)
attr title "packet drop: undefined, sum(packetBytes)"
scalar Network9.meco[0].udp packetReceived:count 171
attr interpolationmode none
attr source packetReceived
attr title "packets received, count"
scalar Network9.meco[0].udp packetReceived:sum(packetBytes) 16720
attr interpolationmode none
attr source packetReceived
attr title "packets received, sum(packetBytes)"
scalar Network9.meco[0].udp packetSent:count 108
attr interpolationmode none
attr source packetSent
attr title "packets sent, count"
scalar Network9.meco[0].udp packetSent:sum(packetBytes) 11268
attr interpolationmode none
attr source packetSent
attr title "packets sent, sum(packetBytes)"
scalar Network9.meco[0].udp passedUpPk:count 171
attr interpolationmode none
attr source packetSentToUpper
attr title "packets passed up, count"
scalar Network9.meco[0].udp droppedPkWrongPort:count 0
attr interpolationmode none
attr source packetDropReasonIsNoPortFound(packetDropped)
attr title "packets dropped (wrong port), count"
scalar Network9.meco[0].udp droppedPkBadChecksum:count 0
attr interpolationmode none
attr source packetDropReasonIsIncorrectlyReceived(packetDropped)
attr title "packets dropped (checksum error), count"
scalar Network9.meco[0].app[0] packetReceived:count 148
attr interpolationmode none
attr source packetReceived
attr title "packets received, count"
scalar Network9.meco[0].app[0] packetReceived:sum(packetBytes) 14800
attr interpolationmode none
attr source packetReceived
attr title "packets received, sum(packetBytes)"
statistic Network9.meco[0].app[0] rcvdPkLifetime:stats
field count 0
field mean nan
field stddev nan
field min nan
field max nan
field sum 0
field sqrsum 0
attr interpolationmode none
attr source dataAge(packetReceived)
attr title "received packet lifetime, stats"
attr unit s
scalar Network9.meco[0].app[0] packetSent:count 103
attr interpolationmode none
attr source packetSent
attr title "packets sent, count"
scalar Network9.meco[0].app[0] packetSent:sum(packetBytes) 10300
attr interpolationmode none
attr source packetSent
attr title "packets sent, sum(packetBytes)"

