file 3264660 1651946533                                         
version 2
run General-0-20220507-23:31:44-18392
attr configname General
attr datetime 20220507-23:31:44
attr experiment General
attr inifile network9.ini
attr iterationvars ""
attr iterationvarsf ""
attr measurement ""
attr network Network9
attr processid 18392
attr repetition 0
attr replication #0
attr resultdir results
attr runnumber 0
attr seedset 0
param *.node[*].mobility.typename "\"VeinsInetMobility\""
param *.manager.updateInterval 0.1s
param *.manager.host "\"localhost\""
param *.manager.port 9999
param *.manager.autoShutdown true
param *.manager.launchConfig "xmldoc(\"erlangen.launchd.xml\")"
param *.manager.moduleType "\"vanettutorials.veins_inet.VeinsInetCar1\""
param *.configurator.addStaticRoutes false
param *.*.wlan[0].opMode "\"a\""
param *.*.wlan[0].radio.bandName "\"5.9 GHz\""
param *.*.wlan[0].radio.channelNumber 3
param *.*.wlan[0].radio.transmitter.power 100mW
param *.*.wlan[0].radio.bandwidth "10 MHz"
param *.*.wlan[0].radio.transmitter.communicationRange 500m
param *.*.ipv4.arp.typename "\"GlobalArp\""
param *.*.ipv4.routingTable.netmaskRoutes "\"\""
param *.configurator.config "xml(\"<config><interface hosts='edge[0]' address='10.0.0.1' netmask='255.255.255.0'/><interface hosts='edge[1]' address='10.0.0.6' netmask='255.255.255.0'/><interface hosts='edge[2]' address='10.0.0.7' netmask='255.255.255.0'/><interface hosts='rsu[0]' address='10.0.0.2' netmask='255.255.255.0'/><interface hosts='rsu[1]' address='10.0.0.5' netmask='255.255.255.0'/><interface hosts='rsu[2]' address='10.0.0.8' netmask='255.255.255.0'/><interface hosts='meco[0]' address='10.0.0.4' netmask='255.255.255.0'/></config>\")"
param *.configurator.dumpAddresses true
param *.configurator.dumpTopology true
param *.configurator.dumpLinks true
param *.configurator.dumpRoutes true
param *.node[*].numApps 1
param *.node[*].app[0].typename "\"vanettutorials.veins_inet.vfognetsim.vehicleMessages.VeinsInetAppForVehicle1\""
param *.node[*].app[0].localPort 5000
param *.node[*].app[0].messageLength 1000B
param *.node[*].app[0].sendInterval exponential(12ms)
param *.node[*].app[0].destPort 5000
param **.node[*].ipv4.configurator.typename "\"HostAutoConfigurator\""
param **.node[*].ipv4.configurator.interfaces "\"wlan0\""
param *.edge[*].numApps 1
param *.edge[*].app[0].typename "\"vanettutorials.veins_inet.vfognetsim.edgeMessages.VeinsInetAppForEdge1\""
param *.edge[*].app[0].localPort 5000
param *.edge[*].app[0].messageLength 1000B
param *.edge[*].app[0].sendInterval exponential(12ms)
param *.edge[*].app[0].destPort 5000
param *.edge[1].app[0].id 21
param *.edge[*].mobility.typename "\"CircleMobility\""
param *.edge[0].mobility.cx 2100m
param *.edge[0].mobility.cy 1650m
param *.edge[0].mobility.r 80m
param *.edge[0].mobility.speed 0mps
param *.edge[0].mobility.startAngle 90deg
param *.edge[1].mobility.cx 2000m
param *.edge[1].mobility.cy 1250m
param *.edge[1].mobility.r 80m
param *.edge[1].mobility.startAngle 90deg
param *.edge[1].mobility.speed 0mps
param *.edge[2].mobility.cx 1900m
param *.edge[2].mobility.cy 1050m
param *.edge[2].mobility.r 80m
param *.edge[2].mobility.speed 0mps
param *.edge[2].mobility.startAngle 90deg
param *.rsu[*].numApps 1
param *.rsu[*].mobility.typename "\"CircleMobility\""
param *.rsu[0].mobility.cx 2100m
param *.rsu[0].mobility.cy 1600m
param *.rsu[0].mobility.r 80m
param *.rsu[0].mobility.speed 0mps
param *.rsu[0].mobility.startAngle 90deg
param *.rsu[1].mobility.cx 2000m
param *.rsu[1].mobility.cy 1200m
param *.rsu[1].mobility.r 80m
param *.rsu[1].mobility.startAngle 90deg
param *.rsu[1].mobility.speed 0mps
param *.rsu[2].mobility.cx 1900m
param *.rsu[2].mobility.cy 1000m
param *.rsu[2].mobility.r 80m
param *.rsu[2].mobility.speed 0mps
param *.rsu[2].mobility.startAngle 90deg
param *.rsu[*].app[0].typename "\"vanettutorials.veins_inet.vfognetsim.rsuMessages.VeinsInetAppForRSU1\""
param *.rsu[*].app[0].localPort 5000
param *.rsu[*].app[0].messageLength 1000B
param *.rsu[*].app[0].sendInterval exponential(12ms)
param *.rsu[*].app[0].destPort 5000
param *.meco[*].numApps 1
param *.meco[*].app[0].typename "\"vanettutorials.veins_inet.vfognetsim.mecoMessages.VeinsInetAppForMeco\""
param *.meco[*].app[0].localPort 5000
param *.meco[*].app[0].messageLength 1000B
param *.meco[*].app[0].sendInterval exponential(12ms)
param *.meco[*].app[0].destPort 5000

vector 0 Network9.edge[0].wlan[0].radio radioMode:vector ETV
attr interpolationmode sample-hold
attr source radioModeChanged
attr title "Radio mode, vector"
vector 1 Network9.edge[0].wlan[0].radio radioChannel:vector ETV
attr interpolationmode sample-hold
attr source radioChannelChanged
attr title "Radio channel, vector"
vector 2 Network9.edge[1].wlan[0].radio radioMode:vector ETV
attr interpolationmode sample-hold
attr source radioModeChanged
attr title "Radio mode, vector"
vector 3 Network9.edge[1].wlan[0].radio radioChannel:vector ETV
attr interpolationmode sample-hold
attr source radioChannelChanged
attr title "Radio channel, vector"
vector 4 Network9.edge[2].wlan[0].radio radioMode:vector ETV
attr interpolationmode sample-hold
attr source radioModeChanged
attr title "Radio mode, vector"
vector 5 Network9.edge[2].wlan[0].radio radioChannel:vector ETV
attr interpolationmode sample-hold
attr source radioChannelChanged
attr title "Radio channel, vector"
vector 6 Network9.rsu[0].wlan[0].radio radioMode:vector ETV
attr interpolationmode sample-hold
attr source radioModeChanged
attr title "Radio mode, vector"
vector 7 Network9.rsu[0].wlan[0].radio radioChannel:vector ETV
attr interpolationmode sample-hold
attr source radioChannelChanged
attr title "Radio channel, vector"
vector 8 Network9.rsu[1].wlan[0].radio radioMode:vector ETV
attr interpolationmode sample-hold
attr source radioModeChanged
attr title "Radio mode, vector"
vector 9 Network9.rsu[1].wlan[0].radio radioChannel:vector ETV
attr interpolationmode sample-hold
attr source radioChannelChanged
attr title "Radio channel, vector"
vector 10 Network9.rsu[2].wlan[0].radio radioMode:vector ETV
attr interpolationmode sample-hold
attr source radioModeChanged
attr title "Radio mode, vector"
vector 11 Network9.rsu[2].wlan[0].radio radioChannel:vector ETV
attr interpolationmode sample-hold
attr source radioChannelChanged
attr title "Radio channel, vector"
vector 12 Network9.meco[0].wlan[0].radio radioMode:vector ETV
attr interpolationmode sample-hold
attr source radioModeChanged
attr title "Radio mode, vector"
vector 13 Network9.meco[0].wlan[0].radio radioChannel:vector ETV
attr interpolationmode sample-hold
attr source radioChannelChanged
attr title "Radio channel, vector"
vector 14 Network9.edge[0].wlan[0].radio receptionState:vector ETV
attr interpolationmode sample-hold
attr source receptionStateChanged
attr title "Radio reception state, vector"
vector 15 Network9.edge[1].wlan[0].radio receptionState:vector ETV
attr interpolationmode sample-hold
attr source receptionStateChanged
attr title "Radio reception state, vector"
vector 16 Network9.edge[2].wlan[0].radio receptionState:vector ETV
attr interpolationmode sample-hold
attr source receptionStateChanged
attr title "Radio reception state, vector"
vector 17 Network9.rsu[0].wlan[0].radio receptionState:vector ETV
attr interpolationmode sample-hold
attr source receptionStateChanged
attr title "Radio reception state, vector"
vector 18 Network9.rsu[1].wlan[0].radio receptionState:vector ETV
attr interpolationmode sample-hold
attr source receptionStateChanged
attr title "Radio reception state, vector"
vector 19 Network9.rsu[2].wlan[0].radio receptionState:vector ETV
attr interpolationmode sample-hold
attr source receptionStateChanged
attr title "Radio reception state, vector"
vector 20 Network9.meco[0].wlan[0].radio receptionState:vector ETV
attr interpolationmode sample-hold
attr source receptionStateChanged
attr title "Radio reception state, vector"
vector 21 Network9.edge[0].wlan[0].mac.dcf.recoveryProcedure contentionWindowChanged:vector ETV
attr interpolationmode sample-hold
attr title "contention window, vector"
vector 22 Network9.edge[1].wlan[0].mac.dcf.recoveryProcedure contentionWindowChanged:vector ETV
attr interpolationmode sample-hold
attr title "contention window, vector"
vector 23 Network9.edge[2].wlan[0].mac.dcf.recoveryProcedure contentionWindowChanged:vector ETV
attr interpolationmode sample-hold
attr title "contention window, vector"
vector 24 Network9.rsu[0].wlan[0].mac.dcf.recoveryProcedure contentionWindowChanged:vector ETV
attr interpolationmode sample-hold
attr title "contention window, vector"
vector 25 Network9.rsu[1].wlan[0].mac.dcf.recoveryProcedure contentionWindowChanged:vector ETV
attr interpolationmode sample-hold
attr title "contention window, vector"
vector 26 Network9.rsu[2].wlan[0].mac.dcf.recoveryProcedure contentionWindowChanged:vector ETV
attr interpolationmode sample-hold
attr title "contention window, vector"
vector 27 Network9.meco[0].wlan[0].mac.dcf.recoveryProcedure contentionWindowChanged:vector ETV
attr interpolationmode sample-hold
attr title "contention window, vector"
vector 28 Network9.node[0].wlan[0].radio radioMode:vector ETV
attr interpolationmode sample-hold
attr source radioModeChanged
attr title "Radio mode, vector"
vector 29 Network9.node[0].wlan[0].radio radioChannel:vector ETV
attr interpolationmode sample-hold
attr source radioChannelChanged
attr title "Radio channel, vector"
vector 30 Network9.node[0].wlan[0].radio receptionState:vector ETV
attr interpolationmode sample-hold
attr source receptionStateChanged
attr title "Radio reception state, vector"
vector 31 Network9.node[0].wlan[0].mac.dcf.recoveryProcedure contentionWindowChanged:vector ETV
attr interpolationmode sample-hold
attr title "contention window, vector"
vector 32 Network9.node[0].app[0] packetSent:vector(packetBytes) ETV
attr interpolationmode none
attr source packetSent
attr title "packets sent, vector(packetBytes)"
vector 33 Network9.node[0].udp packetSent:vector(packetBytes) ETV
attr interpolationmode none
attr source packetSent
attr title "packets sent, vector(packetBytes)"
vector 34 Network9.node[0].wlan[0].mac packetReceivedFromUpper:vector(packetBytes) ETV
attr interpolationmode none
attr title "packets received from upper layer, vector(packetBytes)"
vector 35 Network9.node[0].wlan[0].mac.dcf.channelAccess.pendingQueue packetPushed:vector(packetBytes) ETV
attr interpolationmode none
attr title "packet pushed, vector(packetBytes)"
vector 36 Network9.node[0].wlan[0].mac.dcf.channelAccess.pendingQueue queueLength:vector ETV
attr interpolationmode sample-hold
attr source "count(packetPushed) - count(packetPopped) - count(packetRemoved) - count(packetDropped)"
attr title "queue length, vector"
vector 37 Network9.node[0].wlan[0].mac.dcf.channelAccess.contention backoffPeriodGenerated:vector ETV
attr interpolationmode none
attr title "backoff periods, vector"
vector 38 Network9.node[0].wlan[0].mac.dcf.channelAccess.contention backoffActive:vector ETV
attr interpolationmode sample-hold
attr source count(backoffStarted)-count(backoffStopped)
attr title "backoff active, vector"
vector 39 Network9.node[0].wlan[0].mac.dcf.channelAccess.pendingQueue packetPopped:vector(packetBytes) ETV
attr interpolationmode none
attr title "packet popped, vector(packetBytes)"
vector 40 Network9.node[0].wlan[0].mac.dcf.channelAccess.pendingQueue queueingTime:vector ETV
attr interpolationmode none
attr source queueingTime(packetPopped)
attr title "queueing times, vector"
attr unit s
vector 41 Network9.node[0].wlan[0].mac.dcf.channelAccess.inProgressFrames queueLength:vector ETV
attr interpolationmode sample-hold
attr source "count(packetEnqueued) - count(packetDequeued)"
attr title "queue length, vector"
vector 42 Network9.node[0].wlan[0].mac.dcf datarateSelected:vector ETV
attr interpolationmode none
attr title "datarates selected, vector"
vector 43 Network9.node[0].wlan[0].mac packetSentToLower:vector(packetBytes) ETV
attr interpolationmode none
attr title "packets sent to lower layer, vector(packetBytes)"
vector 44 Network9.node[0].wlan[0].mac.dcf frameSequenceActive:vector ETV
attr interpolationmode sample-hold
attr source count(frameSequenceStarted)-count(frameSequenceFinished)
attr title "frame sequence active, vector"
vector 45 Network9.node[0].wlan[0].radio transmissionState:vector ETV
attr interpolationmode sample-hold
attr source transmissionStateChanged
attr title "Radio transmission state, vector"
vector 46 Network9.node[0].wlan[0].mac.dcf packetSentToPeer:vector(packetBytes) ETV
attr interpolationmode none
attr title "packets sent, vector(packetBytes)"
vector 47 Network9.node[0].wlan[0].mac.dcf packetSentToPeerMulticast:vector(packetBytes) ETV
attr interpolationmode none
attr source ieee80211Multicast(packetSentToPeer)
attr title "packets sent: multicast, vector(packetBytes)"
vector 48 Network9.node[0].wlan[0].mac.dcf packetSentToPeerBroadcast:vector(packetBytes) ETV
attr interpolationmode none
attr source ieee80211Broadcast(packetSentToPeer)
attr title "packets sent: broadcast , vector(packetBytes)"
vector 49 Network9.node[0].wlan[0].mac.dcf packetSentToPeerWithoutRetry:vector(packetBytes) ETV
attr interpolationmode none
attr source ieee80211NotRetry(packetSentToPeer)
attr title "packets sent: without retry, vector(packetBytes)"
vector 50 Network9.node[0].wlan[0].mac.dcf.channelAccess.inProgressFrames queueingTime:vector ETV
attr interpolationmode none
attr source queueingTime(packetDequeued)
attr title "queueing times, vector"
vector 51 Network9.rsu[0].wlan[0].mac packetReceivedFromLower:vector(packetBytes) ETV
attr interpolationmode none
attr title "packets received from lower layer, vector(packetBytes)"
vector 52 Network9.rsu[0].wlan[0].mac.dcf packetReceivedFromPeer:vector(packetBytes) ETV
attr interpolationmode none
attr title "packets received, vector(packetBytes)"
vector 53 Network9.rsu[0].wlan[0].mac.dcf packetReceivedFromPeerMulticast:vector(packetBytes) ETV
attr interpolationmode none
attr source ieee80211Multicast(packetReceivedFromPeer)
attr title "packets received: multicast, vector(packetBytes)"
vector 54 Network9.rsu[0].wlan[0].mac.dcf packetReceivedFromPeerBroadcast:vector(packetBytes) ETV
attr interpolationmode none
attr source ieee80211Broadcast(packetReceivedFromPeer)
attr title "packets received: broadcast, vector(packetBytes)"
vector 55 Network9.rsu[0].wlan[0].mac.dcf packetReceivedFromPeerWithoutRetry:vector(packetBytes) ETV
attr interpolationmode none
attr source ieee80211NotRetry(packetReceivedFromPeer)
attr title "packets received: without retry, vector(packetBytes)"
vector 56 Network9.rsu[0].wlan[0].mac packetSentToUpper:vector(packetBytes) ETV
attr interpolationmode none
attr title "packets sent to upper layer, vector(packetBytes)"
vector 57 Network9.rsu[0].udp packetReceived:vector(packetBytes) ETV
attr interpolationmode none
attr source packetReceived
attr title "packets received, vector(packetBytes)"
vector 58 Network9.rsu[0].udp passedUpPk:vector(count) ETV
attr interpolationmode none
attr source packetSentToUpper
attr title "packets passed up, vector(count)"
vector 59 Network9.rsu[0].udp packetSent:vector(packetBytes) ETV
attr interpolationmode none
attr source packetSent
attr title "packets sent, vector(packetBytes)"
vector 60 Network9.rsu[0].wlan[0].mac packetReceivedFromUpper:vector(packetBytes) ETV
attr interpolationmode none
attr title "packets received from upper layer, vector(packetBytes)"
vector 61 Network9.rsu[0].wlan[0].mac.dcf.channelAccess.pendingQueue packetPushed:vector(packetBytes) ETV
attr interpolationmode none
attr title "packet pushed, vector(packetBytes)"
vector 62 Network9.rsu[0].wlan[0].mac.dcf.channelAccess.pendingQueue queueLength:vector ETV
attr interpolationmode sample-hold
attr source "count(packetPushed) - count(packetPopped) - count(packetRemoved) - count(packetDropped)"
attr title "queue length, vector"
vector 63 Network9.rsu[0].wlan[0].mac.dcf.channelAccess.contention backoffPeriodGenerated:vector ETV
attr interpolationmode none
attr title "backoff periods, vector"
vector 64 Network9.rsu[0].wlan[0].mac.dcf.channelAccess.contention backoffActive:vector ETV
attr interpolationmode sample-hold
attr source count(backoffStarted)-count(backoffStopped)
attr title "backoff active, vector"
vector 65 Network9.edge[0].wlan[0].mac packetReceivedFromLower:vector(packetBytes) ETV
attr interpolationmode none
attr title "packets received from lower layer, vector(packetBytes)"
vector 66 Network9.edge[0].wlan[0].mac.dcf packetReceivedFromPeer:vector(packetBytes) ETV
attr interpolationmode none
attr title "packets received, vector(packetBytes)"
vector 67 Network9.edge[0].wlan[0].mac.dcf packetReceivedFromPeerMulticast:vector(packetBytes) ETV
attr interpolationmode none
attr source ieee80211Multicast(packetReceivedFromPeer)
attr title "packets received: multicast, vector(packetBytes)"
vector 68 Network9.edge[0].wlan[0].mac.dcf packetReceivedFromPeerBroadcast:vector(packetBytes) ETV
attr interpolationmode none
attr source ieee80211Broadcast(packetReceivedFromPeer)
attr title "packets received: broadcast, vector(packetBytes)"
vector 69 Network9.edge[0].wlan[0].mac.dcf packetReceivedFromPeerWithoutRetry:vector(packetBytes) ETV
attr interpolationmode none
attr source ieee80211NotRetry(packetReceivedFromPeer)
attr title "packets received: without retry, vector(packetBytes)"
vector 70 Network9.edge[0].wlan[0].mac packetSentToUpper:vector(packetBytes) ETV
attr interpolationmode none
attr title "packets sent to upper layer, vector(packetBytes)"
vector 71 Network9.edge[0].udp packetReceived:vector(packetBytes) ETV
attr interpolationmode none
attr source packetReceived
attr title "packets received, vector(packetBytes)"
vector 72 Network9.edge[0].udp passedUpPk:vector(count) ETV
attr interpolationmode none
attr source packetSentToUpper
attr title "packets passed up, vector(count)"
vector 73 Network9.edge[1].wlan[0].mac packetReceivedFromLower:vector(packetBytes) ETV
attr interpolationmode none
attr title "packets received from lower layer, vector(packetBytes)"
vector 74 Network9.edge[1].wlan[0].mac.dcf packetReceivedFromPeer:vector(packetBytes) ETV
attr interpolationmode none
attr title "packets received, vector(packetBytes)"
vector 75 Network9.edge[1].wlan[0].mac.dcf packetReceivedFromPeerMulticast:vector(packetBytes) ETV
attr interpolationmode none
attr source ieee80211Multicast(packetReceivedFromPeer)
attr title "packets received: multicast, vector(packetBytes)"
vector 76 Network9.edge[1].wlan[0].mac.dcf packetReceivedFromPeerBroadcast:vector(packetBytes) ETV
attr interpolationmode none
attr source ieee80211Broadcast(packetReceivedFromPeer)
attr title "packets received: broadcast, vector(packetBytes)"
vector 77 Network9.edge[1].wlan[0].mac.dcf packetReceivedFromPeerWithoutRetry:vector(packetBytes) ETV
attr interpolationmode none
attr source ieee80211NotRetry(packetReceivedFromPeer)
attr title "packets received: without retry, vector(packetBytes)"
vector 78 Network9.edge[1].wlan[0].mac packetSentToUpper:vector(packetBytes) ETV
attr interpolationmode none
attr title "packets sent to upper layer, vector(packetBytes)"
vector 79 Network9.edge[1].udp packetReceived:vector(packetBytes) ETV
attr interpolationmode none
attr source packetReceived
attr title "packets received, vector(packetBytes)"
vector 80 Network9.edge[1].udp passedUpPk:vector(count) ETV
attr interpolationmode none
attr source packetSentToUpper
attr title "packets passed up, vector(count)"
vector 81 Network9.rsu[1].wlan[0].mac packetReceivedFromLower:vector(packetBytes) ETV
attr interpolationmode none
attr title "packets received from lower layer, vector(packetBytes)"
vector 82 Network9.rsu[1].wlan[0].mac.dcf packetReceivedFromPeer:vector(packetBytes) ETV
attr interpolationmode none
attr title "packets received, vector(packetBytes)"
vector 83 Network9.rsu[1].wlan[0].mac.dcf packetReceivedFromPeerMulticast:vector(packetBytes) ETV
attr interpolationmode none
attr source ieee80211Multicast(packetReceivedFromPeer)
attr title "packets received: multicast, vector(packetBytes)"
vector 84 Network9.rsu[1].wlan[0].mac.dcf packetReceivedFromPeerBroadcast:vector(packetBytes) ETV
attr interpolationmode none
attr source ieee80211Broadcast(packetReceivedFromPeer)
attr title "packets received: broadcast, vector(packetBytes)"
vector 85 Network9.rsu[1].wlan[0].mac.dcf packetReceivedFromPeerWithoutRetry:vector(packetBytes) ETV
attr interpolationmode none
attr source ieee80211NotRetry(packetReceivedFromPeer)
attr title "packets received: without retry, vector(packetBytes)"
vector 86 Network9.rsu[1].wlan[0].mac packetSentToUpper:vector(packetBytes) ETV
attr interpolationmode none
attr title "packets sent to upper layer, vector(packetBytes)"
vector 87 Network9.rsu[1].udp packetReceived:vector(packetBytes) ETV
attr interpolationmode none
attr source packetReceived
attr title "packets received, vector(packetBytes)"
vector 88 Network9.rsu[1].udp passedUpPk:vector(count) ETV
attr interpolationmode none
attr source packetSentToUpper
attr title "packets passed up, vector(count)"
vector 89 Network9.rsu[0].wlan[0].mac.dcf.channelAccess.pendingQueue packetPopped:vector(packetBytes) ETV
attr interpolationmode none
attr title "packet popped, vector(packetBytes)"
vector 90 Network9.rsu[0].wlan[0].mac.dcf.channelAccess.pendingQueue queueingTime:vector ETV
attr interpolationmode none
attr source queueingTime(packetPopped)
attr title "queueing times, vector"
attr unit s
vector 91 Network9.rsu[0].wlan[0].mac.dcf.channelAccess.inProgressFrames queueLength:vector ETV
attr interpolationmode sample-hold
attr source "count(packetEnqueued) - count(packetDequeued)"
attr title "queue length, vector"
vector 92 Network9.rsu[0].wlan[0].mac.dcf datarateSelected:vector ETV
attr interpolationmode none
attr title "datarates selected, vector"
vector 93 Network9.rsu[0].wlan[0].mac packetSentToLower:vector(packetBytes) ETV
attr interpolationmode none
attr title "packets sent to lower layer, vector(packetBytes)"
vector 94 Network9.rsu[0].wlan[0].mac.dcf frameSequenceActive:vector ETV
attr interpolationmode sample-hold
attr source count(frameSequenceStarted)-count(frameSequenceFinished)
attr title "frame sequence active, vector"
vector 95 Network9.rsu[0].wlan[0].radio transmissionState:vector ETV
attr interpolationmode sample-hold
attr source transmissionStateChanged
attr title "Radio transmission state, vector"
vector 96 Network9.rsu[0].wlan[0].mac.dcf packetSentToPeer:vector(packetBytes) ETV
attr interpolationmode none
attr title "packets sent, vector(packetBytes)"
vector 97 Network9.rsu[0].wlan[0].mac.dcf packetSentToPeerUnicast:vector(packetBytes) ETV
attr interpolationmode none
attr source ieee80211Unicast(packetSentToPeer)
attr title "packets sent: unicast, vector(packetBytes)"
vector 98 Network9.rsu[0].wlan[0].mac.dcf packetSentToPeerWithoutRetry:vector(packetBytes) ETV
attr interpolationmode none
attr source ieee80211NotRetry(packetSentToPeer)
attr title "packets sent: without retry, vector(packetBytes)"
vector 99 Network9.rsu[0].wlan[0].mac.rx nav:vector ETV
attr interpolationmode linear
attr source navChanged
attr title "network allocation vector, vector"
vector 100 Network9.edge[0].wlan[0].mac.rx nav:vector ETV
attr interpolationmode linear
attr source navChanged
attr title "network allocation vector, vector"
vector 101 Network9.edge[0].wlan[0].mac.dcf packetDrop:vector(packetBytes) ETV
attr interpolationmode none
attr source packetDropped
attr title "packet drops, vector(packetBytes)"
vector 102 Network9.edge[0].wlan[0].mac.dcf packetDropNotAddressedToUs:vector(packetBytes) ETV
attr interpolationmode none
attr source packetDropReasonIsNotAddressedToUs(packetDropped)
attr title "packet drops: not addressed to us, vector(packetBytes)"
vector 103 Network9.edge[0].wlan[0].mac packetDrop:vector(packetBytes) ETV
attr interpolationmode none
attr source packetDropped
attr title "packet drops, vector(packetBytes)"
vector 104 Network9.edge[0].wlan[0].mac packetDropNotAddressedToUs:vector(packetBytes) ETV
attr interpolationmode none
attr source packetDropReasonIsNotAddressedToUs(packetDropped)
attr title "packet drops: not addressed to us, vector(packetBytes)"
vector 105 Network9.node[0].wlan[0].mac packetReceivedFromLower:vector(packetBytes) ETV
attr interpolationmode none
attr title "packets received from lower layer, vector(packetBytes)"
vector 106 Network9.node[0].wlan[0].mac.dcf packetReceivedFromPeer:vector(packetBytes) ETV
attr interpolationmode none
attr title "packets received, vector(packetBytes)"
vector 107 Network9.node[0].wlan[0].mac.dcf packetReceivedFromPeerUnicast:vector(packetBytes) ETV
attr interpolationmode none
attr source ieee80211Unicast(packetReceivedFromPeer)
attr title "packets received: unicast, vector(packetBytes)"
vector 108 Network9.node[0].wlan[0].mac.dcf packetReceivedFromPeerWithoutRetry:vector(packetBytes) ETV
attr interpolationmode none
attr source ieee80211NotRetry(packetReceivedFromPeer)
attr title "packets received: without retry, vector(packetBytes)"
vector 109 Network9.node[0].wlan[0].mac packetSentToUpper:vector(packetBytes) ETV
attr interpolationmode none
attr title "packets sent to upper layer, vector(packetBytes)"
vector 110 Network9.node[0].udp packetReceived:vector(packetBytes) ETV
attr interpolationmode none
attr source packetReceived
attr title "packets received, vector(packetBytes)"
vector 111 Network9.node[0].udp passedUpPk:vector(count) ETV
attr interpolationmode none
attr source packetSentToUpper
attr title "packets passed up, vector(count)"
vector 112 Network9.edge[1].wlan[0].mac.rx nav:vector ETV
attr interpolationmode linear
attr source navChanged
attr title "network allocation vector, vector"
vector 113 Network9.edge[1].wlan[0].mac.dcf packetDrop:vector(packetBytes) ETV
attr interpolationmode none
attr source packetDropped
attr title "packet drops, vector(packetBytes)"
vector 114 Network9.edge[1].wlan[0].mac.dcf packetDropNotAddressedToUs:vector(packetBytes) ETV
attr interpolationmode none
attr source packetDropReasonIsNotAddressedToUs(packetDropped)
attr title "packet drops: not addressed to us, vector(packetBytes)"
vector 115 Network9.edge[1].wlan[0].mac packetDrop:vector(packetBytes) ETV
attr interpolationmode none
attr source packetDropped
attr title "packet drops, vector(packetBytes)"
vector 116 Network9.edge[1].wlan[0].mac packetDropNotAddressedToUs:vector(packetBytes) ETV
attr interpolationmode none
attr source packetDropReasonIsNotAddressedToUs(packetDropped)
attr title "packet drops: not addressed to us, vector(packetBytes)"
vector 117 Network9.rsu[1].wlan[0].mac.rx nav:vector ETV
attr interpolationmode linear
attr source navChanged
attr title "network allocation vector, vector"
vector 118 Network9.rsu[1].wlan[0].mac.dcf packetDrop:vector(packetBytes) ETV
attr interpolationmode none
attr source packetDropped
attr title "packet drops, vector(packetBytes)"
vector 119 Network9.rsu[1].wlan[0].mac.dcf packetDropNotAddressedToUs:vector(packetBytes) ETV
attr interpolationmode none
attr source packetDropReasonIsNotAddressedToUs(packetDropped)
attr title "packet drops: not addressed to us, vector(packetBytes)"
vector 120 Network9.rsu[1].wlan[0].mac packetDrop:vector(packetBytes) ETV
attr interpolationmode none
attr source packetDropped
attr title "packet drops, vector(packetBytes)"
vector 121 Network9.rsu[1].wlan[0].mac packetDropNotAddressedToUs:vector(packetBytes) ETV
attr interpolationmode none
attr source packetDropReasonIsNotAddressedToUs(packetDropped)
attr title "packet drops: not addressed to us, vector(packetBytes)"
vector 122 Network9.edge[2].wlan[0].mac packetReceivedFromLower:vector(packetBytes) ETV
attr interpolationmode none
attr title "packets received from lower layer, vector(packetBytes)"
vector 123 Network9.edge[2].wlan[0].mac.rx nav:vector ETV
attr interpolationmode linear
attr source navChanged
attr title "network allocation vector, vector"
vector 124 Network9.edge[2].wlan[0].mac.dcf packetDrop:vector(packetBytes) ETV
attr interpolationmode none
attr source packetDropped
attr title "packet drops, vector(packetBytes)"
vector 125 Network9.edge[2].wlan[0].mac.dcf packetDropNotAddressedToUs:vector(packetBytes) ETV
attr interpolationmode none
attr source packetDropReasonIsNotAddressedToUs(packetDropped)
attr title "packet drops: not addressed to us, vector(packetBytes)"
vector 126 Network9.edge[2].wlan[0].mac packetDrop:vector(packetBytes) ETV
attr interpolationmode none
attr source packetDropped
attr title "packet drops, vector(packetBytes)"
vector 127 Network9.edge[2].wlan[0].mac packetDropNotAddressedToUs:vector(packetBytes) ETV
attr interpolationmode none
attr source packetDropReasonIsNotAddressedToUs(packetDropped)
attr title "packet drops: not addressed to us, vector(packetBytes)"
vector 128 Network9.rsu[2].wlan[0].mac packetReceivedFromLower:vector(packetBytes) ETV
attr interpolationmode none
attr title "packets received from lower layer, vector(packetBytes)"
vector 129 Network9.rsu[2].wlan[0].mac.rx nav:vector ETV
attr interpolationmode linear
attr source navChanged
attr title "network allocation vector, vector"
vector 130 Network9.rsu[2].wlan[0].mac.dcf packetDrop:vector(packetBytes) ETV
attr interpolationmode none
attr source packetDropped
attr title "packet drops, vector(packetBytes)"
vector 131 Network9.rsu[2].wlan[0].mac.dcf packetDropNotAddressedToUs:vector(packetBytes) ETV
attr interpolationmode none
attr source packetDropReasonIsNotAddressedToUs(packetDropped)
attr title "packet drops: not addressed to us, vector(packetBytes)"
vector 132 Network9.rsu[2].wlan[0].mac packetDrop:vector(packetBytes) ETV
attr interpolationmode none
attr source packetDropped
attr title "packet drops, vector(packetBytes)"
vector 133 Network9.rsu[2].wlan[0].mac packetDropNotAddressedToUs:vector(packetBytes) ETV
attr interpolationmode none
attr source packetDropReasonIsNotAddressedToUs(packetDropped)
attr title "packet drops: not addressed to us, vector(packetBytes)"
vector 134 Network9.meco[0].wlan[0].mac packetReceivedFromLower:vector(packetBytes) ETV
attr interpolationmode none
attr title "packets received from lower layer, vector(packetBytes)"
vector 135 Network9.meco[0].wlan[0].mac.rx nav:vector ETV
attr interpolationmode linear
attr source navChanged
attr title "network allocation vector, vector"
vector 136 Network9.meco[0].wlan[0].mac.dcf packetDrop:vector(packetBytes) ETV
attr interpolationmode none
attr source packetDropped
attr title "packet drops, vector(packetBytes)"
vector 137 Network9.meco[0].wlan[0].mac.dcf packetDropNotAddressedToUs:vector(packetBytes) ETV
attr interpolationmode none
attr source packetDropReasonIsNotAddressedToUs(packetDropped)
attr title "packet drops: not addressed to us, vector(packetBytes)"
vector 138 Network9.meco[0].wlan[0].mac packetDrop:vector(packetBytes) ETV
attr interpolationmode none
attr source packetDropped
attr title "packet drops, vector(packetBytes)"
vector 139 Network9.meco[0].wlan[0].mac packetDropNotAddressedToUs:vector(packetBytes) ETV
attr interpolationmode none
attr source packetDropReasonIsNotAddressedToUs(packetDropped)
attr title "packet drops: not addressed to us, vector(packetBytes)"
vector 140 Network9.node[0].wlan[0].mac.dcf packetSentToPeerUnicast:vector(packetBytes) ETV
attr interpolationmode none
attr source ieee80211Unicast(packetSentToPeer)
attr title "packets sent: unicast, vector(packetBytes)"
vector 141 Network9.rsu[0].wlan[0].mac.dcf packetReceivedFromPeerUnicast:vector(packetBytes) ETV
attr interpolationmode none
attr source ieee80211Unicast(packetReceivedFromPeer)
attr title "packets received: unicast, vector(packetBytes)"
vector 142 Network9.rsu[0].wlan[0].mac.dcf.channelAccess.inProgressFrames queueingTime:vector ETV
attr interpolationmode none
attr source queueingTime(packetDequeued)
attr title "queueing times, vector"
vector 143 Network9.edge[1].udp packetSent:vector(packetBytes) ETV
attr interpolationmode none
attr source packetSent
attr title "packets sent, vector(packetBytes)"
vector 144 Network9.edge[1].wlan[0].mac packetReceivedFromUpper:vector(packetBytes) ETV
attr interpolationmode none
attr title "packets received from upper layer, vector(packetBytes)"
vector 145 Network9.edge[1].wlan[0].mac.dcf.channelAccess.pendingQueue packetPushed:vector(packetBytes) ETV
attr interpolationmode none
attr title "packet pushed, vector(packetBytes)"
vector 146 Network9.edge[1].wlan[0].mac.dcf.channelAccess.pendingQueue queueLength:vector ETV
attr interpolationmode sample-hold
attr source "count(packetPushed) - count(packetPopped) - count(packetRemoved) - count(packetDropped)"
attr title "queue length, vector"
vector 147 Network9.edge[1].wlan[0].mac.dcf.channelAccess.contention backoffPeriodGenerated:vector ETV
attr interpolationmode none
attr title "backoff periods, vector"
vector 148 Network9.edge[1].wlan[0].mac.dcf.channelAccess.contention backoffActive:vector ETV
attr interpolationmode sample-hold
attr source count(backoffStarted)-count(backoffStopped)
attr title "backoff active, vector"
vector 149 Network9.edge[1].wlan[0].mac.dcf.channelAccess.pendingQueue packetPopped:vector(packetBytes) ETV
attr interpolationmode none
attr title "packet popped, vector(packetBytes)"
vector 150 Network9.edge[1].wlan[0].mac.dcf.channelAccess.pendingQueue queueingTime:vector ETV
attr interpolationmode none
attr source queueingTime(packetPopped)
attr title "queueing times, vector"
attr unit s
vector 151 Network9.edge[1].wlan[0].mac.dcf.channelAccess.inProgressFrames queueLength:vector ETV
attr interpolationmode sample-hold
attr source "count(packetEnqueued) - count(packetDequeued)"
attr title "queue length, vector"
vector 152 Network9.edge[1].wlan[0].mac.dcf datarateSelected:vector ETV
attr interpolationmode none
attr title "datarates selected, vector"
vector 153 Network9.edge[1].wlan[0].mac packetSentToLower:vector(packetBytes) ETV
attr interpolationmode none
attr title "packets sent to lower layer, vector(packetBytes)"
vector 154 Network9.edge[1].wlan[0].mac.dcf frameSequenceActive:vector ETV
attr interpolationmode sample-hold
attr source count(frameSequenceStarted)-count(frameSequenceFinished)
attr title "frame sequence active, vector"
vector 155 Network9.edge[1].wlan[0].radio transmissionState:vector ETV
attr interpolationmode sample-hold
attr source transmissionStateChanged
attr title "Radio transmission state, vector"
vector 156 Network9.edge[1].wlan[0].mac.dcf packetSentToPeer:vector(packetBytes) ETV
attr interpolationmode none
attr title "packets sent, vector(packetBytes)"
vector 157 Network9.edge[1].wlan[0].mac.dcf packetSentToPeerMulticast:vector(packetBytes) ETV
attr interpolationmode none
attr source ieee80211Multicast(packetSentToPeer)
attr title "packets sent: multicast, vector(packetBytes)"
vector 158 Network9.edge[1].wlan[0].mac.dcf packetSentToPeerBroadcast:vector(packetBytes) ETV
attr interpolationmode none
attr source ieee80211Broadcast(packetSentToPeer)
attr title "packets sent: broadcast , vector(packetBytes)"
vector 159 Network9.edge[1].wlan[0].mac.dcf packetSentToPeerWithoutRetry:vector(packetBytes) ETV
attr interpolationmode none
attr source ieee80211NotRetry(packetSentToPeer)
attr title "packets sent: without retry, vector(packetBytes)"
vector 160 Network9.edge[1].wlan[0].mac.dcf.channelAccess.inProgressFrames queueingTime:vector ETV
attr interpolationmode none
attr source queueingTime(packetDequeued)
attr title "queueing times, vector"
vector 161 Network9.edge[2].wlan[0].mac.dcf packetReceivedFromPeer:vector(packetBytes) ETV
attr interpolationmode none
attr title "packets received, vector(packetBytes)"
vector 162 Network9.edge[2].wlan[0].mac.dcf packetReceivedFromPeerMulticast:vector(packetBytes) ETV
attr interpolationmode none
attr source ieee80211Multicast(packetReceivedFromPeer)
attr title "packets received: multicast, vector(packetBytes)"
vector 163 Network9.edge[2].wlan[0].mac.dcf packetReceivedFromPeerBroadcast:vector(packetBytes) ETV
attr interpolationmode none
attr source ieee80211Broadcast(packetReceivedFromPeer)
attr title "packets received: broadcast, vector(packetBytes)"
vector 164 Network9.edge[2].wlan[0].mac.dcf packetReceivedFromPeerWithoutRetry:vector(packetBytes) ETV
attr interpolationmode none
attr source ieee80211NotRetry(packetReceivedFromPeer)
attr title "packets received: without retry, vector(packetBytes)"
vector 165 Network9.edge[2].wlan[0].mac packetSentToUpper:vector(packetBytes) ETV
attr interpolationmode none
attr title "packets sent to upper layer, vector(packetBytes)"
vector 166 Network9.edge[2].udp packetReceived:vector(packetBytes) ETV
attr interpolationmode none
attr source packetReceived
attr title "packets received, vector(packetBytes)"
vector 167 Network9.edge[2].udp passedUpPk:vector(count) ETV
attr interpolationmode none
attr source packetSentToUpper
attr title "packets passed up, vector(count)"
vector 168 Network9.rsu[2].wlan[0].mac.dcf packetReceivedFromPeer:vector(packetBytes) ETV
attr interpolationmode none
attr title "packets received, vector(packetBytes)"
vector 169 Network9.rsu[2].wlan[0].mac.dcf packetReceivedFromPeerMulticast:vector(packetBytes) ETV
attr interpolationmode none
attr source ieee80211Multicast(packetReceivedFromPeer)
attr title "packets received: multicast, vector(packetBytes)"
vector 170 Network9.rsu[2].wlan[0].mac.dcf packetReceivedFromPeerBroadcast:vector(packetBytes) ETV
attr interpolationmode none
attr source ieee80211Broadcast(packetReceivedFromPeer)
attr title "packets received: broadcast, vector(packetBytes)"
vector 171 Network9.rsu[2].wlan[0].mac.dcf packetReceivedFromPeerWithoutRetry:vector(packetBytes) ETV
attr interpolationmode none
attr source ieee80211NotRetry(packetReceivedFromPeer)
attr title "packets received: without retry, vector(packetBytes)"
vector 172 Network9.rsu[2].wlan[0].mac packetSentToUpper:vector(packetBytes) ETV
attr interpolationmode none
attr title "packets sent to upper layer, vector(packetBytes)"
vector 173 Network9.rsu[2].udp packetReceived:vector(packetBytes) ETV
attr interpolationmode none
attr source packetReceived
attr title "packets received, vector(packetBytes)"
vector 174 Network9.rsu[2].udp passedUpPk:vector(count) ETV
attr interpolationmode none
attr source packetSentToUpper
attr title "packets passed up, vector(count)"
vector 175 Network9.meco[0].wlan[0].mac.dcf packetReceivedFromPeer:vector(packetBytes) ETV
attr interpolationmode none
attr title "packets received, vector(packetBytes)"
vector 176 Network9.meco[0].wlan[0].mac.dcf packetReceivedFromPeerMulticast:vector(packetBytes) ETV
attr interpolationmode none
attr source ieee80211Multicast(packetReceivedFromPeer)
attr title "packets received: multicast, vector(packetBytes)"
vector 177 Network9.meco[0].wlan[0].mac.dcf packetReceivedFromPeerBroadcast:vector(packetBytes) ETV
attr interpolationmode none
attr source ieee80211Broadcast(packetReceivedFromPeer)
attr title "packets received: broadcast, vector(packetBytes)"
vector 178 Network9.meco[0].wlan[0].mac.dcf packetReceivedFromPeerWithoutRetry:vector(packetBytes) ETV
attr interpolationmode none
attr source ieee80211NotRetry(packetReceivedFromPeer)
attr title "packets received: without retry, vector(packetBytes)"
vector 179 Network9.meco[0].wlan[0].mac packetSentToUpper:vector(packetBytes) ETV
attr interpolationmode none
attr title "packets sent to upper layer, vector(packetBytes)"
vector 180 Network9.meco[0].udp packetReceived:vector(packetBytes) ETV
attr interpolationmode none
attr source packetReceived
attr title "packets received, vector(packetBytes)"
vector 181 Network9.meco[0].udp passedUpPk:vector(count) ETV
attr interpolationmode none
attr source packetSentToUpper
attr title "packets passed up, vector(count)"
vector 182 Network9.node[0].wlan[0].mac.dcf packetReceivedFromPeerMulticast:vector(packetBytes) ETV
attr interpolationmode none
attr source ieee80211Multicast(packetReceivedFromPeer)
attr title "packets received: multicast, vector(packetBytes)"
vector 183 Network9.node[0].wlan[0].mac.dcf packetReceivedFromPeerBroadcast:vector(packetBytes) ETV
attr interpolationmode none
attr source ieee80211Broadcast(packetReceivedFromPeer)
attr title "packets received: broadcast, vector(packetBytes)"
vector 184 Network9.node[0].wlan[0].mac.rx nav:vector ETV
attr interpolationmode linear
attr source navChanged
attr title "network allocation vector, vector"
vector 185 Network9.rsu[0].app[0] packetReceived:vector(packetBytes) ETV
attr interpolationmode none
attr source packetReceived
attr title "packets received, vector(packetBytes)"
vector 186 Network9.rsu[0].app[0] throughput:vector ETV
attr source throughput(packetReceived)
attr title "throughput, vector"
attr unit bps
vector 187 Network9.rsu[0].app[0] packetSent:vector(packetBytes) ETV
attr interpolationmode none
attr source packetSent
attr title "packets sent, vector(packetBytes)"
vector 188 Network9.node[0].app[0] packetReceived:vector(packetBytes) ETV
attr interpolationmode none
attr source packetReceived
attr title "packets received, vector(packetBytes)"
vector 189 Network9.node[0].app[0] throughput:vector ETV
attr source throughput(packetReceived)
attr title "throughput, vector"
attr unit bps
vector 190 Network9.edge[0].udp packetSent:vector(packetBytes) ETV
attr interpolationmode none
attr source packetSent
attr title "packets sent, vector(packetBytes)"
vector 191 Network9.edge[0].wlan[0].mac packetReceivedFromUpper:vector(packetBytes) ETV
attr interpolationmode none
attr title "packets received from upper layer, vector(packetBytes)"
vector 192 Network9.edge[0].wlan[0].mac.dcf.channelAccess.pendingQueue packetPushed:vector(packetBytes) ETV
attr interpolationmode none
attr title "packet pushed, vector(packetBytes)"
vector 193 Network9.edge[0].wlan[0].mac.dcf.channelAccess.pendingQueue queueLength:vector ETV
attr interpolationmode sample-hold
attr source "count(packetPushed) - count(packetPopped) - count(packetRemoved) - count(packetDropped)"
attr title "queue length, vector"
vector 194 Network9.edge[0].wlan[0].mac.dcf.channelAccess.contention backoffPeriodGenerated:vector ETV
attr interpolationmode none
attr title "backoff periods, vector"
vector 195 Network9.edge[0].wlan[0].mac.dcf.channelAccess.contention backoffActive:vector ETV
attr interpolationmode sample-hold
attr source count(backoffStarted)-count(backoffStopped)
attr title "backoff active, vector"
vector 196 Network9.edge[0].wlan[0].mac.dcf.channelAccess.pendingQueue packetPopped:vector(packetBytes) ETV
attr interpolationmode none
attr title "packet popped, vector(packetBytes)"
vector 197 Network9.edge[0].wlan[0].mac.dcf.channelAccess.pendingQueue queueingTime:vector ETV
attr interpolationmode none
attr source queueingTime(packetPopped)
attr title "queueing times, vector"
attr unit s
vector 198 Network9.edge[0].wlan[0].mac.dcf.channelAccess.inProgressFrames queueLength:vector ETV
attr interpolationmode sample-hold
attr source "count(packetEnqueued) - count(packetDequeued)"
attr title "queue length, vector"
vector 199 Network9.edge[0].wlan[0].mac.dcf datarateSelected:vector ETV
attr interpolationmode none
attr title "datarates selected, vector"
vector 200 Network9.edge[0].wlan[0].mac packetSentToLower:vector(packetBytes) ETV
attr interpolationmode none
attr title "packets sent to lower layer, vector(packetBytes)"
vector 201 Network9.edge[0].wlan[0].mac.dcf frameSequenceActive:vector ETV
attr interpolationmode sample-hold
attr source count(frameSequenceStarted)-count(frameSequenceFinished)
attr title "frame sequence active, vector"
vector 202 Network9.edge[0].wlan[0].radio transmissionState:vector ETV
attr interpolationmode sample-hold
attr source transmissionStateChanged
attr title "Radio transmission state, vector"
vector 203 Network9.edge[0].wlan[0].mac.dcf packetSentToPeer:vector(packetBytes) ETV
attr interpolationmode none
attr title "packets sent, vector(packetBytes)"
vector 204 Network9.edge[0].wlan[0].mac.dcf packetSentToPeerMulticast:vector(packetBytes) ETV
attr interpolationmode none
attr source ieee80211Multicast(packetSentToPeer)
attr title "packets sent: multicast, vector(packetBytes)"
vector 205 Network9.edge[0].wlan[0].mac.dcf packetSentToPeerBroadcast:vector(packetBytes) ETV
attr interpolationmode none
attr source ieee80211Broadcast(packetSentToPeer)
attr title "packets sent: broadcast , vector(packetBytes)"
vector 206 Network9.edge[0].wlan[0].mac.dcf packetSentToPeerWithoutRetry:vector(packetBytes) ETV
attr interpolationmode none
attr source ieee80211NotRetry(packetSentToPeer)
attr title "packets sent: without retry, vector(packetBytes)"
vector 207 Network9.edge[0].wlan[0].mac.dcf.channelAccess.inProgressFrames queueingTime:vector ETV
attr interpolationmode none
attr source queueingTime(packetDequeued)
attr title "queueing times, vector"
vector 208 Network9.rsu[1].udp packetSent:vector(packetBytes) ETV
attr interpolationmode none
attr source packetSent
attr title "packets sent, vector(packetBytes)"
vector 209 Network9.rsu[1].wlan[0].mac packetReceivedFromUpper:vector(packetBytes) ETV
attr interpolationmode none
attr title "packets received from upper layer, vector(packetBytes)"
vector 210 Network9.rsu[1].wlan[0].mac.dcf.channelAccess.pendingQueue packetPushed:vector(packetBytes) ETV
attr interpolationmode none
attr title "packet pushed, vector(packetBytes)"
vector 211 Network9.rsu[1].wlan[0].mac.dcf.channelAccess.pendingQueue queueLength:vector ETV
attr interpolationmode sample-hold
attr source "count(packetPushed) - count(packetPopped) - count(packetRemoved) - count(packetDropped)"
attr title "queue length, vector"
vector 212 Network9.rsu[1].wlan[0].mac.dcf.channelAccess.contention backoffPeriodGenerated:vector ETV
attr interpolationmode none
attr title "backoff periods, vector"
vector 213 Network9.rsu[1].wlan[0].mac.dcf.channelAccess.contention backoffActive:vector ETV
attr interpolationmode sample-hold
attr source count(backoffStarted)-count(backoffStopped)
attr title "backoff active, vector"
vector 214 Network9.rsu[1].wlan[0].mac.dcf.channelAccess.pendingQueue packetPopped:vector(packetBytes) ETV
attr interpolationmode none
attr title "packet popped, vector(packetBytes)"
vector 215 Network9.rsu[1].wlan[0].mac.dcf.channelAccess.pendingQueue queueingTime:vector ETV
attr interpolationmode none
attr source queueingTime(packetPopped)
attr title "queueing times, vector"
attr unit s
vector 216 Network9.rsu[1].wlan[0].mac.dcf.channelAccess.inProgressFrames queueLength:vector ETV
attr interpolationmode sample-hold
attr source "count(packetEnqueued) - count(packetDequeued)"
attr title "queue length, vector"
vector 217 Network9.rsu[1].wlan[0].mac.dcf datarateSelected:vector ETV
attr interpolationmode none
attr title "datarates selected, vector"
vector 218 Network9.rsu[1].wlan[0].mac packetSentToLower:vector(packetBytes) ETV
attr interpolationmode none
attr title "packets sent to lower layer, vector(packetBytes)"
vector 219 Network9.rsu[1].wlan[0].mac.dcf frameSequenceActive:vector ETV
attr interpolationmode sample-hold
attr source count(frameSequenceStarted)-count(frameSequenceFinished)
attr title "frame sequence active, vector"
vector 220 Network9.rsu[1].wlan[0].radio transmissionState:vector ETV
attr interpolationmode sample-hold
attr source transmissionStateChanged
attr title "Radio transmission state, vector"
vector 221 Network9.rsu[1].wlan[0].mac.dcf packetSentToPeer:vector(packetBytes) ETV
attr interpolationmode none
attr title "packets sent, vector(packetBytes)"
vector 222 Network9.rsu[1].wlan[0].mac.dcf packetSentToPeerMulticast:vector(packetBytes) ETV
attr interpolationmode none
attr source ieee80211Multicast(packetSentToPeer)
attr title "packets sent: multicast, vector(packetBytes)"
vector 223 Network9.rsu[1].wlan[0].mac.dcf packetSentToPeerBroadcast:vector(packetBytes) ETV
attr interpolationmode none
attr source ieee80211Broadcast(packetSentToPeer)
attr title "packets sent: broadcast , vector(packetBytes)"
vector 224 Network9.rsu[1].wlan[0].mac.dcf packetSentToPeerWithoutRetry:vector(packetBytes) ETV
attr interpolationmode none
attr source ieee80211NotRetry(packetSentToPeer)
attr title "packets sent: without retry, vector(packetBytes)"
vector 225 Network9.rsu[1].wlan[0].mac.dcf.channelAccess.inProgressFrames queueingTime:vector ETV
attr interpolationmode none
attr source queueingTime(packetDequeued)
attr title "queueing times, vector"
vector 226 Network9.rsu[1].wlan[0].mac.dcf packetSentToPeerUnicast:vector(packetBytes) ETV
attr interpolationmode none
attr source ieee80211Unicast(packetSentToPeer)
attr title "packets sent: unicast, vector(packetBytes)"
vector 227 Network9.rsu[0].wlan[0].mac.dcf packetDrop:vector(packetBytes) ETV
attr interpolationmode none
attr source packetDropped
attr title "packet drops, vector(packetBytes)"
vector 228 Network9.rsu[0].wlan[0].mac.dcf packetDropNotAddressedToUs:vector(packetBytes) ETV
attr interpolationmode none
attr source packetDropReasonIsNotAddressedToUs(packetDropped)
attr title "packet drops: not addressed to us, vector(packetBytes)"
vector 229 Network9.rsu[0].wlan[0].mac packetDrop:vector(packetBytes) ETV
attr interpolationmode none
attr source packetDropped
attr title "packet drops, vector(packetBytes)"
vector 230 Network9.rsu[0].wlan[0].mac packetDropNotAddressedToUs:vector(packetBytes) ETV
attr interpolationmode none
attr source packetDropReasonIsNotAddressedToUs(packetDropped)
attr title "packet drops: not addressed to us, vector(packetBytes)"
vector 231 Network9.rsu[1].wlan[0].mac.dcf packetReceivedFromPeerUnicast:vector(packetBytes) ETV
attr interpolationmode none
attr source ieee80211Unicast(packetReceivedFromPeer)
attr title "packets received: unicast, vector(packetBytes)"
vector 232 Network9.rsu[1].app[0] packetReceived:vector(packetBytes) ETV
attr interpolationmode none
attr source packetReceived
attr title "packets received, vector(packetBytes)"
vector 233 Network9.rsu[1].app[0] throughput:vector ETV
attr source throughput(packetReceived)
attr title "throughput, vector"
attr unit bps
vector 234 Network9.rsu[1].app[0] packetSent:vector(packetBytes) ETV
attr interpolationmode none
attr source packetSent
attr title "packets sent, vector(packetBytes)"
vector 235 Network9.rsu[0].wlan[0].mac.dcf packetSentToPeerMulticast:vector(packetBytes) ETV
attr interpolationmode none
attr source ieee80211Multicast(packetSentToPeer)
attr title "packets sent: multicast, vector(packetBytes)"
vector 236 Network9.rsu[0].wlan[0].mac.dcf packetSentToPeerBroadcast:vector(packetBytes) ETV
attr interpolationmode none
attr source ieee80211Broadcast(packetSentToPeer)
attr title "packets sent: broadcast , vector(packetBytes)"
vector 237 Network9.node[0].wlan[0].mac packetDrop:vector(packetBytes) ETV
attr interpolationmode none
attr source packetDropped
attr title "packet drops, vector(packetBytes)"
vector 238 Network9.node[0].wlan[0].mac packetDropIncorrectlyReceived:vector(packetBytes) ETV
attr interpolationmode none
attr source packetDropReasonIsIncorrectlyReceived(packetDropped)
attr title "packet drops: incorrectly received, vector(packetBytes)"
vector 239 Network9.meco[0].wlan[0].mac packetDropIncorrectlyReceived:vector(packetBytes) ETV
attr interpolationmode none
attr source packetDropReasonIsIncorrectlyReceived(packetDropped)
attr title "packet drops: incorrectly received, vector(packetBytes)"
vector 240 Network9.edge[2].wlan[0].mac packetDropIncorrectlyReceived:vector(packetBytes) ETV
attr interpolationmode none
attr source packetDropReasonIsIncorrectlyReceived(packetDropped)
attr title "packet drops: incorrectly received, vector(packetBytes)"
vector 241 Network9.rsu[2].wlan[0].mac packetDropIncorrectlyReceived:vector(packetBytes) ETV
attr interpolationmode none
attr source packetDropReasonIsIncorrectlyReceived(packetDropped)
attr title "packet drops: incorrectly received, vector(packetBytes)"
vector 242 Network9.rsu[1].wlan[0].mac.dcf packetSentToPeerWithRetry:vector(packetBytes) ETV
attr interpolationmode none
attr source ieee80211Retry(packetSentToPeer)
attr title "packets sent: with retry, vector(packetBytes)"
vector 243 Network9.node[0].wlan[0].mac.dcf packetReceivedFromPeerWithRetry:vector(packetBytes) ETV
attr interpolationmode none
attr source ieee80211Retry(packetReceivedFromPeer)
attr title "packets received: with retry, vector(packetBytes)"
vector 244 Network9.rsu[2].udp packetSent:vector(packetBytes) ETV
attr interpolationmode none
attr source packetSent
attr title "packets sent, vector(packetBytes)"
vector 245 Network9.rsu[2].wlan[0].mac packetReceivedFromUpper:vector(packetBytes) ETV
attr interpolationmode none
attr title "packets received from upper layer, vector(packetBytes)"
vector 246 Network9.rsu[2].wlan[0].mac.dcf.channelAccess.pendingQueue packetPushed:vector(packetBytes) ETV
attr interpolationmode none
attr title "packet pushed, vector(packetBytes)"
vector 247 Network9.rsu[2].wlan[0].mac.dcf.channelAccess.pendingQueue queueLength:vector ETV
attr interpolationmode sample-hold
attr source "count(packetPushed) - count(packetPopped) - count(packetRemoved) - count(packetDropped)"
attr title "queue length, vector"
vector 248 Network9.rsu[2].wlan[0].mac.dcf.channelAccess.contention backoffPeriodGenerated:vector ETV
attr interpolationmode none
attr title "backoff periods, vector"
vector 249 Network9.rsu[2].wlan[0].mac.dcf.channelAccess.contention backoffActive:vector ETV
attr interpolationmode sample-hold
attr source count(backoffStarted)-count(backoffStopped)
attr title "backoff active, vector"
vector 250 Network9.rsu[2].wlan[0].mac.dcf.channelAccess.pendingQueue packetPopped:vector(packetBytes) ETV
attr interpolationmode none
attr title "packet popped, vector(packetBytes)"
vector 251 Network9.rsu[2].wlan[0].mac.dcf.channelAccess.pendingQueue queueingTime:vector ETV
attr interpolationmode none
attr source queueingTime(packetPopped)
attr title "queueing times, vector"
attr unit s
vector 252 Network9.rsu[2].wlan[0].mac.dcf.channelAccess.inProgressFrames queueLength:vector ETV
attr interpolationmode sample-hold
attr source "count(packetEnqueued) - count(packetDequeued)"
attr title "queue length, vector"
vector 253 Network9.rsu[2].wlan[0].mac.dcf datarateSelected:vector ETV
attr interpolationmode none
attr title "datarates selected, vector"
vector 254 Network9.rsu[2].wlan[0].mac packetSentToLower:vector(packetBytes) ETV
attr interpolationmode none
attr title "packets sent to lower layer, vector(packetBytes)"
vector 255 Network9.rsu[2].wlan[0].mac.dcf frameSequenceActive:vector ETV
attr interpolationmode sample-hold
attr source count(frameSequenceStarted)-count(frameSequenceFinished)
attr title "frame sequence active, vector"
vector 256 Network9.rsu[2].wlan[0].radio transmissionState:vector ETV
attr interpolationmode sample-hold
attr source transmissionStateChanged
attr title "Radio transmission state, vector"
vector 257 Network9.rsu[2].wlan[0].mac.dcf packetSentToPeer:vector(packetBytes) ETV
attr interpolationmode none
attr title "packets sent, vector(packetBytes)"
vector 258 Network9.rsu[2].wlan[0].mac.dcf packetSentToPeerUnicast:vector(packetBytes) ETV
attr interpolationmode none
attr source ieee80211Unicast(packetSentToPeer)
attr title "packets sent: unicast, vector(packetBytes)"
vector 259 Network9.rsu[2].wlan[0].mac.dcf packetSentToPeerWithoutRetry:vector(packetBytes) ETV
attr interpolationmode none
attr source ieee80211NotRetry(packetSentToPeer)
attr title "packets sent: without retry, vector(packetBytes)"
vector 260 Network9.edge[0].wlan[0].mac.dcf packetReceivedFromPeerUnicast:vector(packetBytes) ETV
attr interpolationmode none
attr source ieee80211Unicast(packetReceivedFromPeer)
attr title "packets received: unicast, vector(packetBytes)"
vector 261 Network9.edge[0].wlan[0].mac.dcf packetSentToPeerUnicast:vector(packetBytes) ETV
attr interpolationmode none
attr source ieee80211Unicast(packetSentToPeer)
attr title "packets sent: unicast, vector(packetBytes)"
vector 262 Network9.node[0].wlan[0].mac.dcf packetDrop:vector(packetBytes) ETV
attr interpolationmode none
attr source packetDropped
attr title "packet drops, vector(packetBytes)"
vector 263 Network9.node[0].wlan[0].mac.dcf packetDropNotAddressedToUs:vector(packetBytes) ETV
attr interpolationmode none
attr source packetDropReasonIsNotAddressedToUs(packetDropped)
attr title "packet drops: not addressed to us, vector(packetBytes)"
vector 264 Network9.node[0].wlan[0].mac packetDropNotAddressedToUs:vector(packetBytes) ETV
attr interpolationmode none
attr source packetDropReasonIsNotAddressedToUs(packetDropped)
attr title "packet drops: not addressed to us, vector(packetBytes)"
vector 265 Network9.rsu[2].wlan[0].mac.dcf packetReceivedFromPeerUnicast:vector(packetBytes) ETV
attr interpolationmode none
attr source ieee80211Unicast(packetReceivedFromPeer)
attr title "packets received: unicast, vector(packetBytes)"
vector 266 Network9.rsu[2].wlan[0].mac.dcf.channelAccess.inProgressFrames queueingTime:vector ETV
attr interpolationmode none
attr source queueingTime(packetDequeued)
attr title "queueing times, vector"
vector 267 Network9.meco[0].udp packetSent:vector(packetBytes) ETV
attr interpolationmode none
attr source packetSent
attr title "packets sent, vector(packetBytes)"
vector 268 Network9.meco[0].wlan[0].mac packetReceivedFromUpper:vector(packetBytes) ETV
attr interpolationmode none
attr title "packets received from upper layer, vector(packetBytes)"
vector 269 Network9.meco[0].wlan[0].mac.dcf.channelAccess.pendingQueue packetPushed:vector(packetBytes) ETV
attr interpolationmode none
attr title "packet pushed, vector(packetBytes)"
vector 270 Network9.meco[0].wlan[0].mac.dcf.channelAccess.pendingQueue queueLength:vector ETV
attr interpolationmode sample-hold
attr source "count(packetPushed) - count(packetPopped) - count(packetRemoved) - count(packetDropped)"
attr title "queue length, vector"
vector 271 Network9.meco[0].wlan[0].mac.dcf.channelAccess.contention backoffPeriodGenerated:vector ETV
attr interpolationmode none
attr title "backoff periods, vector"
vector 272 Network9.meco[0].wlan[0].mac.dcf.channelAccess.contention backoffActive:vector ETV
attr interpolationmode sample-hold
attr source count(backoffStarted)-count(backoffStopped)
attr title "backoff active, vector"
vector 273 Network9.meco[0].wlan[0].mac.dcf.channelAccess.pendingQueue packetPopped:vector(packetBytes) ETV
attr interpolationmode none
attr title "packet popped, vector(packetBytes)"
vector 274 Network9.meco[0].wlan[0].mac.dcf.channelAccess.pendingQueue queueingTime:vector ETV
attr interpolationmode none
attr source queueingTime(packetPopped)
attr title "queueing times, vector"
attr unit s
vector 275 Network9.meco[0].wlan[0].mac.dcf.channelAccess.inProgressFrames queueLength:vector ETV
attr interpolationmode sample-hold
attr source "count(packetEnqueued) - count(packetDequeued)"
attr title "queue length, vector"
vector 276 Network9.meco[0].wlan[0].mac.dcf datarateSelected:vector ETV
attr interpolationmode none
attr title "datarates selected, vector"
vector 277 Network9.meco[0].wlan[0].mac packetSentToLower:vector(packetBytes) ETV
attr interpolationmode none
attr title "packets sent to lower layer, vector(packetBytes)"
vector 278 Network9.meco[0].wlan[0].mac.dcf frameSequenceActive:vector ETV
attr interpolationmode sample-hold
attr source count(frameSequenceStarted)-count(frameSequenceFinished)
attr title "frame sequence active, vector"
vector 279 Network9.meco[0].wlan[0].radio transmissionState:vector ETV
attr interpolationmode sample-hold
attr source transmissionStateChanged
attr title "Radio transmission state, vector"
vector 280 Network9.meco[0].wlan[0].mac.dcf packetSentToPeer:vector(packetBytes) ETV
attr interpolationmode none
attr title "packets sent, vector(packetBytes)"
vector 281 Network9.meco[0].wlan[0].mac.dcf packetSentToPeerUnicast:vector(packetBytes) ETV
attr interpolationmode none
attr source ieee80211Unicast(packetSentToPeer)
attr title "packets sent: unicast, vector(packetBytes)"
vector 282 Network9.meco[0].wlan[0].mac.dcf packetSentToPeerWithoutRetry:vector(packetBytes) ETV
attr interpolationmode none
attr source ieee80211NotRetry(packetSentToPeer)
attr title "packets sent: without retry, vector(packetBytes)"
vector 283 Network9.meco[0].wlan[0].mac.dcf packetReceivedFromPeerUnicast:vector(packetBytes) ETV
attr interpolationmode none
attr source ieee80211Unicast(packetReceivedFromPeer)
attr title "packets received: unicast, vector(packetBytes)"
vector 284 Network9.meco[0].wlan[0].mac.dcf.channelAccess.inProgressFrames queueingTime:vector ETV
attr interpolationmode none
attr source queueingTime(packetDequeued)
attr title "queueing times, vector"
vector 285 Network9.meco[0].app[0] packetReceived:vector(packetBytes) ETV
attr interpolationmode none
attr source packetReceived
attr title "packets received, vector(packetBytes)"
vector 286 Network9.meco[0].app[0] throughput:vector ETV
attr source throughput(packetReceived)
attr title "throughput, vector"
attr unit bps
vector 287 Network9.meco[0].app[0] packetSent:vector(packetBytes) ETV
attr interpolationmode none
attr source packetSent
attr title "packets sent, vector(packetBytes)"
vector 288 Network9.edge[0].app[0] packetReceived:vector(packetBytes) ETV
attr interpolationmode none
attr source packetReceived
attr title "packets received, vector(packetBytes)"
vector 289 Network9.edge[0].app[0] throughput:vector ETV
attr source throughput(packetReceived)
attr title "throughput, vector"
attr unit bps
vector 290 Network9.edge[0].app[0] packetSent:vector(packetBytes) ETV
attr interpolationmode none
attr source packetSent
attr title "packets sent, vector(packetBytes)"
vector 291 Network9.edge[2].udp packetSent:vector(packetBytes) ETV
attr interpolationmode none
attr source packetSent
attr title "packets sent, vector(packetBytes)"
vector 292 Network9.edge[2].wlan[0].mac packetReceivedFromUpper:vector(packetBytes) ETV
attr interpolationmode none
attr title "packets received from upper layer, vector(packetBytes)"
vector 293 Network9.edge[2].wlan[0].mac.dcf.channelAccess.pendingQueue packetPushed:vector(packetBytes) ETV
attr interpolationmode none
attr title "packet pushed, vector(packetBytes)"
vector 294 Network9.edge[2].wlan[0].mac.dcf.channelAccess.pendingQueue queueLength:vector ETV
attr interpolationmode sample-hold
attr source "count(packetPushed) - count(packetPopped) - count(packetRemoved) - count(packetDropped)"
attr title "queue length, vector"
vector 295 Network9.edge[2].wlan[0].mac.dcf.channelAccess.contention backoffPeriodGenerated:vector ETV
attr interpolationmode none
attr title "backoff periods, vector"
vector 296 Network9.edge[2].wlan[0].mac.dcf.channelAccess.contention backoffActive:vector ETV
attr interpolationmode sample-hold
attr source count(backoffStarted)-count(backoffStopped)
attr title "backoff active, vector"
vector 297 Network9.edge[2].wlan[0].mac.dcf.channelAccess.pendingQueue packetPopped:vector(packetBytes) ETV
attr interpolationmode none
attr title "packet popped, vector(packetBytes)"
vector 298 Network9.edge[2].wlan[0].mac.dcf.channelAccess.pendingQueue queueingTime:vector ETV
attr interpolationmode none
attr source queueingTime(packetPopped)
attr title "queueing times, vector"
attr unit s
vector 299 Network9.edge[2].wlan[0].mac.dcf.channelAccess.inProgressFrames queueLength:vector ETV
attr interpolationmode sample-hold
attr source "count(packetEnqueued) - count(packetDequeued)"
attr title "queue length, vector"
vector 300 Network9.edge[2].wlan[0].mac.dcf datarateSelected:vector ETV
attr interpolationmode none
attr title "datarates selected, vector"
vector 301 Network9.edge[2].wlan[0].mac packetSentToLower:vector(packetBytes) ETV
attr interpolationmode none
attr title "packets sent to lower layer, vector(packetBytes)"
vector 302 Network9.edge[2].wlan[0].mac.dcf frameSequenceActive:vector ETV
attr interpolationmode sample-hold
attr source count(frameSequenceStarted)-count(frameSequenceFinished)
attr title "frame sequence active, vector"
vector 303 Network9.edge[2].wlan[0].radio transmissionState:vector ETV
attr interpolationmode sample-hold
attr source transmissionStateChanged
attr title "Radio transmission state, vector"
vector 304 Network9.edge[2].wlan[0].mac.dcf packetSentToPeer:vector(packetBytes) ETV
attr interpolationmode none
attr title "packets sent, vector(packetBytes)"
vector 305 Network9.edge[2].wlan[0].mac.dcf packetSentToPeerMulticast:vector(packetBytes) ETV
attr interpolationmode none
attr source ieee80211Multicast(packetSentToPeer)
attr title "packets sent: multicast, vector(packetBytes)"
vector 306 Network9.edge[2].wlan[0].mac.dcf packetSentToPeerBroadcast:vector(packetBytes) ETV
attr interpolationmode none
attr source ieee80211Broadcast(packetSentToPeer)
attr title "packets sent: broadcast , vector(packetBytes)"
vector 307 Network9.edge[2].wlan[0].mac.dcf packetSentToPeerWithoutRetry:vector(packetBytes) ETV
attr interpolationmode none
attr source ieee80211NotRetry(packetSentToPeer)
attr title "packets sent: without retry, vector(packetBytes)"
vector 308 Network9.edge[2].wlan[0].mac.dcf.channelAccess.inProgressFrames queueingTime:vector ETV
attr interpolationmode none
attr source queueingTime(packetDequeued)
attr title "queueing times, vector"
vector 309 Network9.edge[1].wlan[0].mac packetDropIncorrectlyReceived:vector(packetBytes) ETV
attr interpolationmode none
attr source packetDropReasonIsIncorrectlyReceived(packetDropped)
attr title "packet drops: incorrectly received, vector(packetBytes)"
vector 310 Network9.rsu[1].wlan[0].mac packetDropIncorrectlyReceived:vector(packetBytes) ETV
attr interpolationmode none
attr source packetDropReasonIsIncorrectlyReceived(packetDropped)
attr title "packet drops: incorrectly received, vector(packetBytes)"
vector 311 Network9.meco[0].wlan[0].mac.dcf packetSentToPeerMulticast:vector(packetBytes) ETV
attr interpolationmode none
attr source ieee80211Multicast(packetSentToPeer)
attr title "packets sent: multicast, vector(packetBytes)"
vector 312 Network9.meco[0].wlan[0].mac.dcf packetSentToPeerBroadcast:vector(packetBytes) ETV
attr interpolationmode none
attr source ieee80211Broadcast(packetSentToPeer)
attr title "packets sent: broadcast , vector(packetBytes)"
vector 313 Network9.edge[0].wlan[0].mac.dcf packetSentToPeerWithRetry:vector(packetBytes) ETV
attr interpolationmode none
attr source ieee80211Retry(packetSentToPeer)
attr title "packets sent: with retry, vector(packetBytes)"
vector 314 Network9.rsu[0].wlan[0].mac packetDropIncorrectlyReceived:vector(packetBytes) ETV
attr interpolationmode none
attr source packetDropReasonIsIncorrectlyReceived(packetDropped)
attr title "packet drops: incorrectly received, vector(packetBytes)"
vector 315 Network9.edge[0].wlan[0].mac packetDropIncorrectlyReceived:vector(packetBytes) ETV
attr interpolationmode none
attr source packetDropReasonIsIncorrectlyReceived(packetDropped)
attr title "packet drops: incorrectly received, vector(packetBytes)"
vector 316 Network9.rsu[2].app[0] packetReceived:vector(packetBytes) ETV
attr interpolationmode none
attr source packetReceived
attr title "packets received, vector(packetBytes)"
vector 317 Network9.rsu[2].app[0] throughput:vector ETV
attr source throughput(packetReceived)
attr title "throughput, vector"
attr unit bps
vector 318 Network9.rsu[2].app[0] packetSent:vector(packetBytes) ETV
attr interpolationmode none
attr source packetSent
attr title "packets sent, vector(packetBytes)"
vector 319 Network9.edge[0].wlan[0].mac.dcf packetReceivedFromPeerWithRetry:vector(packetBytes) ETV
attr interpolationmode none
attr source ieee80211Retry(packetReceivedFromPeer)
attr title "packets received: with retry, vector(packetBytes)"
vector 320 Network9.rsu[2].wlan[0].mac.dcf packetSentToPeerMulticast:vector(packetBytes) ETV
attr interpolationmode none
attr source ieee80211Multicast(packetSentToPeer)
attr title "packets sent: multicast, vector(packetBytes)"
vector 321 Network9.rsu[2].wlan[0].mac.dcf packetSentToPeerBroadcast:vector(packetBytes) ETV
attr interpolationmode none
attr source ieee80211Broadcast(packetSentToPeer)
attr title "packets sent: broadcast , vector(packetBytes)"
vector 322 Network9.edge[2].wlan[0].mac.dcf packetReceivedFromPeerUnicast:vector(packetBytes) ETV
attr interpolationmode none
attr source ieee80211Unicast(packetReceivedFromPeer)
attr title "packets received: unicast, vector(packetBytes)"
vector 323 Network9.edge[2].app[0] packetReceived:vector(packetBytes) ETV
attr interpolationmode none
attr source packetReceived
attr title "packets received, vector(packetBytes)"
vector 324 Network9.edge[2].app[0] throughput:vector ETV
attr source throughput(packetReceived)
attr title "throughput, vector"
attr unit bps
vector 325 Network9.edge[2].app[0] packetSent:vector(packetBytes) ETV
attr interpolationmode none
attr source packetSent
attr title "packets sent, vector(packetBytes)"
vector 326 Network9.edge[2].wlan[0].mac.dcf packetSentToPeerUnicast:vector(packetBytes) ETV
attr interpolationmode none
attr source ieee80211Unicast(packetSentToPeer)
attr title "packets sent: unicast, vector(packetBytes)"
vector 327 Network9.rsu[0].wlan[0].mac.dcf packetSentToPeerWithRetry:vector(packetBytes) ETV
attr interpolationmode none
attr source ieee80211Retry(packetSentToPeer)
attr title "packets sent: with retry, vector(packetBytes)"
vector 328 Network9.meco[0].wlan[0].mac.dcf packetSentToPeerWithRetry:vector(packetBytes) ETV
attr interpolationmode none
attr source ieee80211Retry(packetSentToPeer)
attr title "packets sent: with retry, vector(packetBytes)"
vector 329 Network9.node[0].wlan[0].mac.dcf packetSentToPeerWithRetry:vector(packetBytes) ETV
attr interpolationmode none
attr source ieee80211Retry(packetSentToPeer)
attr title "packets sent: with retry, vector(packetBytes)"
vector 330 Network9.rsu[2].wlan[0].mac.dcf packetSentToPeerWithRetry:vector(packetBytes) ETV
attr interpolationmode none
attr source ieee80211Retry(packetSentToPeer)
attr title "packets sent: with retry, vector(packetBytes)"
vector 331 Network9.rsu[0].wlan[0].mac.dcf packetReceivedFromPeerWithRetry:vector(packetBytes) ETV
attr interpolationmode none
attr source ieee80211Retry(packetReceivedFromPeer)
attr title "packets received: with retry, vector(packetBytes)"
vector 332 Network9.rsu[1].wlan[0].mac.dcf packetReceivedFromPeerWithRetry:vector(packetBytes) ETV
attr interpolationmode none
attr source ieee80211Retry(packetReceivedFromPeer)
attr title "packets received: with retry, vector(packetBytes)"
vector 333 Network9.edge[2].wlan[0].mac.dcf packetReceivedFromPeerWithRetry:vector(packetBytes) ETV
attr interpolationmode none
attr source ieee80211Retry(packetReceivedFromPeer)
attr title "packets received: with retry, vector(packetBytes)"
vector 334 Network9.meco[0].wlan[0].mac.dcf packetReceivedFromPeerWithRetry:vector(packetBytes) ETV
attr interpolationmode none
attr source ieee80211Retry(packetReceivedFromPeer)
attr title "packets received: with retry, vector(packetBytes)"
vector 335 Network9.meco[0].wlan[0].mac.dcf.recipientMacDataService packetDropDuplicateDetected:vector(packetBytes) ETV
attr interpolationmode none
attr source packetDropReasonIsDuplicateDetected(packetDropped)
attr title "packet drops: duplicate detected, vector(packetBytes)"
vector 336 Network9.meco[0].wlan[0].mac packetDropDuplicateDetected:vector(packetBytes) ETV
attr interpolationmode none
attr source packetDropReasonIsDuplicateDetected(packetDropped)
attr title "packet drops: duplicate detected, vector(packetBytes)"
vector 337 Network9.edge[2].wlan[0].mac.dcf packetSentToPeerWithRetry:vector(packetBytes) ETV
attr interpolationmode none
attr source ieee80211Retry(packetSentToPeer)
attr title "packets sent: with retry, vector(packetBytes)"
vector 338 Network9.rsu[2].wlan[0].mac.dcf packetReceivedFromPeerWithRetry:vector(packetBytes) ETV
attr interpolationmode none
attr source ieee80211Retry(packetReceivedFromPeer)
attr title "packets received: with retry, vector(packetBytes)"
vector 339 Network9.rsu[2].wlan[0].mac.dcf.recipientMacDataService packetDropDuplicateDetected:vector(packetBytes) ETV
attr interpolationmode none
attr source packetDropReasonIsDuplicateDetected(packetDropped)
attr title "packet drops: duplicate detected, vector(packetBytes)"
vector 340 Network9.rsu[2].wlan[0].mac packetDropDuplicateDetected:vector(packetBytes) ETV
attr interpolationmode none
attr source packetDropReasonIsDuplicateDetected(packetDropped)
attr title "packet drops: duplicate detected, vector(packetBytes)"
vector 341 Network9.rsu[0].wlan[0].mac.dcf.recipientMacDataService packetDropDuplicateDetected:vector(packetBytes) ETV
attr interpolationmode none
attr source packetDropReasonIsDuplicateDetected(packetDropped)
attr title "packet drops: duplicate detected, vector(packetBytes)"
vector 342 Network9.rsu[0].wlan[0].mac packetDropDuplicateDetected:vector(packetBytes) ETV
attr interpolationmode none
attr source packetDropReasonIsDuplicateDetected(packetDropped)
attr title "packet drops: duplicate detected, vector(packetBytes)"
vector 343 Network9.edge[2].wlan[0].mac.dcf.recipientMacDataService packetDropDuplicateDetected:vector(packetBytes) ETV
attr interpolationmode none
attr source packetDropReasonIsDuplicateDetected(packetDropped)
attr title "packet drops: duplicate detected, vector(packetBytes)"
vector 344 Network9.edge[2].wlan[0].mac packetDropDuplicateDetected:vector(packetBytes) ETV
attr interpolationmode none
attr source packetDropReasonIsDuplicateDetected(packetDropped)
attr title "packet drops: duplicate detected, vector(packetBytes)"
vector 345 Network9.edge[0].wlan[0].mac.dcf.recipientMacDataService packetDropDuplicateDetected:vector(packetBytes) ETV
attr interpolationmode none
attr source packetDropReasonIsDuplicateDetected(packetDropped)
attr title "packet drops: duplicate detected, vector(packetBytes)"
vector 346 Network9.edge[0].wlan[0].mac packetDropDuplicateDetected:vector(packetBytes) ETV
attr interpolationmode none
attr source packetDropReasonIsDuplicateDetected(packetDropped)
attr title "packet drops: duplicate detected, vector(packetBytes)"
0	75259 8717 0 49650 0 20.174817153973 329 0 3 817 2123
1	83976 9 0 0 0 0 1 3 3 3 9
2	83985 387 0 7122 0 20.025179727173 17 0 3 37 95
3	84372 9 0 0 0 0 1 3 3 3 9
4	84381 5545 0 49728 0 20.175027263618 209 0 3 517 1343
5	89926 9 0 0 0 0 1 3 3 3 9
6	89935 9749 0 49177 0 20.173430947532 367 0 3 912 2370
7	99684 9 0 0 0 0 1 3 3 3 9
8	99693 7043 0 48642 0 20.171529015904 267 0 3 662 1720
9	106736 9 0 0 0 0 1 3 3 3 9
10	106745 15088 0 49759 0 20.1750714304 547 0 3 1362 3540
11	121833 10 0 0 0 0 1 3 3 3 9
12	121843 17870 0 49580 0 20.174650386756 645 0 3 1607 4177
13	139713 10 0 0 0 0 1 3 3 3 9
14	139723 80735 0 49754 0 20.175045698881 2916 0 3 5357 13055
15	220458 80678 0 49751 0 20.175044328549 2913 0 3 5817 14441
16	301136 64791 0 49760 0 20.175071597182 2339 0 3 4368 10752
17	365927 81071 0 49753 0 20.175045540045 2925 0 3 5321 12935
18	446998 80658 0 49750 0 20.175044176272 2913 0 3 5442 13316
19	527656 64721 0 49759 0 20.1750714304 2339 0 3 3861 9231
20	592377 64775 0 49752 0 20.175045182285 2339 0 3 3715 8793
21	657152 125 0 28373 0 20.100935503228 5 15 31 107 2597
22	657277 11 0 0 0 0 1 15 15 15 225
23	657288 185 0 28287 0 20.100705467111 7 15 31 153 3783
24	657473 125 0 18269 0 20.065417416329 5 15 31 107 2597
25	657598 237 0 45743 0 20.161461718273 9 15 31 199 4969
26	657835 1450 0 48714 0 20.171705265546 51 15 127 1757 100115
27	659285 2756 0 48656 0 20.171530794889 96 15 255 3536 279296
28	662041 18977 23 49718 0.1 20.175004232764 688 0 3 1715 4459
29	681018 13 23 23 0.1 0.1 1 3 3 3 9
30	681031 45808 23 49718 0.1 20.175004232764 1659 0 3 2284 5180
31	726839 3842 23 49152 0.1 20.173205024189 133 15 511 11771 2636165
32	730681 2328 381 49658 20 20.174818232764 79 100 100 7900 790000
33	733009 2494 390 49659 20 20.174818232764 85 32 108 8724 927600
34	735503 2507 396 49662 20.001921908541 20.174818232764 85 60 136 11104 1482784
35	738010 2507 396 49662 20.001921908541 20.174818232764 85 88 164 13484 2171248
36	740517 4683 396 49717 20.001921908541 20.175004232764 170 0 1 85 85
37	745200 5203 396 49662 20.001921908541 20.174818232764 184 0 502 6608 1059992
38	750403 23842 396 49716 20.001921908541 20.175004232764 862 0 1 431 431
39	774245 2504 398 49717 20.001921908541 20.175004232764 85 88 164 13484 2171248
40	776749 3023 398 49717 20.001921908541 20.175004232764 85 0 0.000735 0.014192623597 3.5426773641627e-006
41	779772 4656 398 49717 20.001921908541 20.175004232764 169 0 2 93 101
42	784428 11884 398 49717 20.001921908541 20.175004232764 343 24000000 24000000 8232000000 1.97568e+017
43	796312 10004 398 49717 20.001921908541 20.175004232764 343 14 164 31946 4865116
44	806316 10143 398 49717 20.001921908541 20.175004232764 367 0 1 184 184
45	816459 37876 399 49719 20.001921908541 20.175004232764 1370 0 2 1371 2057
46	854335 9974 408 49686 20.001973908541 20.174862232764 342 14 164 31782 4838220
47	864309 166 408 7539 20.001973908541 20.026267714102 6 88 88 528 46464
48	864475 166 408 7539 20.001973908541 20.026267714102 6 88 88 528 46464
49	864641 7031 408 49686 20.001973908541 20.174862232764 243 14 164 15546 2175516
50	871672 3376 408 49152 20.001973908541 20.173205024189 84 5.2e-005 0.008001495017 0.101998478446 0.00041822107458059
51	875048 35768 411 49742 20.001974983014 20.175029215752 1224 14 164 111902 16878076
52	910816 5714 411 49236 20.001974983014 20.173479166822 197 14 164 15610 2168916
53	916530 638 411 7142 20.001974983014 20.025180941365 23 88 88 2024 178112
54	917168 638 411 7142 20.001974983014 20.025180941365 23 88 88 2024 178112
55	917806 4668 411 49236 20.001974983014 20.173479166822 162 14 164 9950 1247396
56	922474 2803 411 49118 20.001974983014 20.173159947532 96 56 136 10908 1356208
57	925277 2116 414 48749 20.001974983014 20.171923794218 73 28 108 5736 552352
58	927393 2062 414 48749 20.001974983014 20.171923794218 73 1 73 2701 132349
59	929455 2363 416 47944 20.001974983014 20.169497077407 80 28 108 8104 858400
60	931818 3050 419 49122 20.001974983014 20.173159947532 103 56 136 13472 1800352
61	934868 3050 419 49122 20.001974983014 20.173159947532 103 84 164 16356 2635536
62	937918 5702 419 49166 20.001974983014 20.173354947532 206 0 3 217 387
63	943620 2945 419 49122 20.001974983014 20.173159947532 105 0 30 755 8343
64	946565 14612 419 49165 20.001974983014 20.173354947532 528 0 1 264 264
65	961177 36295 421 49744 20.001974985185 20.175029373263 1243 14 164 114582 17322668
66	997472 5209 421 49694 20.001974985185 20.174863311555 180 14 164 14556 2025912
67	1002681 667 421 7148 20.001974985185 20.025181102493 24 88 88 2112 185856
68	1003348 667 421 7148 20.001974985185 20.025181102493 24 88 88 2112 185856
69	1004015 5002 421 49694 20.001974985185 20.174863311555 173 14 164 13488 1857480
70	1009017 2709 421 49393 20.001974985185 20.17413586262 93 56 136 10584 1316544
71	1011726 1256 424 45576 20.001974985185 20.161048026117 44 28 108 2688 225216
72	1012982 1230 424 45576 20.001974985185 20.161048026117 44 1 44 990 29370
73	1014212 40903 427 49738 20.001975780999 20.17502800949 1400 14 164 130038 19707836
74	1055115 552 427 6410 20.001975780999 20.023393413335 20 88 88 1760 154880
75	1055667 552 427 6410 20.001975780999 20.023393413335 20 88 88 1760 154880
76	1056219 552 427 6410 20.001975780999 20.023393413335 20 88 88 1760 154880
77	1056771 552 427 6410 20.001975780999 20.023393413335 20 88 88 1760 154880
78	1057323 552 427 6410 20.001975780999 20.023393413335 20 60 60 1200 72000
79	1057875 552 430 6413 20.001975780999 20.023393413335 20 32 32 640 20480
80	1058427 543 430 6413 20.001975780999 20.023393413335 20 1 20 210 2870
81	1058970 37239 433 49736 20.001975895118 20.175027864959 1275 14 164 116834 17650028
82	1096209 4288 433 48617 20.001975895118 20.171485015904 149 14 164 10982 1472116
83	1100497 666 433 7124 20.001975895118 20.025179893955 24 88 88 2112 185856
84	1101163 666 433 7124 20.001975895118 20.025179893955 24 88 88 2112 185856
85	1101829 3750 433 47860 20.001975895118 20.168990570458 131 14 164 8030 987988
86	1105579 2090 433 48617 20.001975895118 20.171485015904 72 56 136 7888 958848
[...]
120	1781716 34077 467 49736 20.002125358334 20.175027864959 1126 14 164 105852 16177912
121	1815793 30374 467 49700 20.002125358334 20.174864221026 1005 14 164 89240 13515640
122	1846167 32046 469 49761 20.002125935148 20.175071597182 1060 14 164 102108 15522536
123	1878213 52088 469 49757 20.002125935148 20.175071263618 1677 0 4.4e-005 0.024596 1.082224e-006
124	1930301 26656 469 49668 20.002125935148 20.174819263618 881 14 164 85534 13118276
125	1956957 26594 469 49668 20.002125935148 20.174819263618 879 14 164 85206 13064484
126	1983551 28581 469 49668 20.002125935148 20.174819263618 944 14 164 94136 14499184
127	2012132 26594 469 49668 20.002125935148 20.174819263618 879 14 164 85206 13064484
128	2038726 26914 471 49730 20.002126092659 20.1750274304 891 14 164 85802 13019292
129	2065640 45056 471 49695 20.002126092659 20.174863422454 1452 0 4.4e-005 0.021296 9.37024e-007
130	2110696 17191 471 49670 20.002126092659 20.174819422454 568 14 164 56052 8617128
131	2127887 17129 471 49670 20.002126092659 20.174819422454 566 14 164 55724 8563336
132	2145016 19147 471 49670 20.002126092659 20.174819422454 632 14 164 64738 10005092
133	2164163 17129 471 49670 20.002126092659 20.174819422454 566 14 164 55724 8563336
134	2181292 25419 473 49740 20.002126263571 20.17502892119 841 14 164 84732 12926712
135	2206711 41395 473 49696 20.002126263571 20.174863509174 1335 0 4.4e-005 0.01958 8.6152e-007
136	2248106 15106 473 49672 20.002126263571 20.174819509174 500 14 164 49540 7602920
137	2263212 14827 473 49672 20.002126263571 20.174819509174 491 14 164 48064 7360856
138	2278039 17022 473 49740 20.002126263571 20.17502892119 563 14 164 56788 8720320
139	2295061 14827 473 49672 20.002126263571 20.174819509174 491 14 164 48064 7360856
140	2309888 10144 486 49686 20.002169057487 20.174862232764 336 14 164 31254 4791756
141	2320032 5250 493 49236 20.00217013196 20.173479166822 174 14 164 13586 1990804
142	2325282 4240 493 49236 20.00217013196 20.173479166822 103 5.2e-005 0.00189511204 0.030814709512 1.8102425740885e-005
143	2329522 202 505 7007 20.002259345878 20.024874114331 7 32 32 224 7168
144	2329724 202 508 7010 20.002259345878 20.024874114331 7 60 60 420 25200
145	2329926 202 508 7010 20.002259345878 20.024874114331 7 88 88 616 54208
146	2330128 389 508 7111 20.002259345878 20.025127727173 14 0 2 9 11
147	2330517 198 508 7010 20.002259345878 20.024874114331 7 3 15 64 692
148	2330715 1953 508 7110 20.002259345878 20.025127727173 70 0 1 35 35
149	2332668 201 510 7111 20.002294929945 20.025127727173 7 88 88 616 54208
150	2332869 272 510 7111 20.002294929945 20.025127727173 7 0 0.001489178722 0.003556498261 3.5264218559507e-006
151	2333141 388 510 7121 20.002294929945 20.025179727173 14 0 2 9 11
152	2333529 243 510 7111 20.002294929945 20.025127727173 7 24000000 24000000 168000000 4.032e+015
153	2333772 201 510 7111 20.002294929945 20.025127727173 7 88 88 616 54208
154	2333973 388 510 7121 20.002294929945 20.025179727173 14 0 1 7 7
155	2334361 776 511 7122 20.002294929945 20.025179727173 28 0 2 28 42
156	2335137 201 520 7121 20.002346929945 20.025179727173 7 88 88 616 54208
157	2335338 201 520 7121 20.002346929945 20.025179727173 7 88 88 616 54208
158	2335539 201 520 7121 20.002346929945 20.025179727173 7 88 88 616 54208
159	2335740 201 520 7121 20.002346929945 20.025179727173 7 88 88 616 54208
160	2335941 242 520 7121 20.002346929945 20.025179727173 7 5.2e-005 0.00021 0.000522 6.0324e-008
161	2336183 3527 529 49761 20.002347675817 20.175071597182 118 14 164 8300 1077144
162	2339710 633 529 7130 20.002347675817 20.025180473045 22 88 88 1936 170368
163	2340343 633 529 7130 20.002347675817 20.025180473045 22 88 88 1936 170368
164	2340976 3096 529 49761 20.002347675817 20.175071597182 104 14 164 6004 700600
165	2344072 1616 529 49582 20.002347675817 20.174652044328 54 56 136 5592 655712
166	2345688 1616 532 49585 20.002347675817 20.174652044328 54 28 108 4080 384896
167	2347304 1576 532 49585 20.002347675817 20.174652044328 54 1 54 1485 53955
168	2348880 7829 535 49730 20.002347828094 20.1750274304 261 14 164 21392 3067992
169	2356709 629 535 7136 20.002347828094 20.025180625322 22 88 88 1936 170368
170	2357338 629 535 7136 20.002347828094 20.025180625322 22 88 88 1936 170368
171	2357967 7550 535 49730 20.002347828094 20.1750274304 252 14 164 19916 2825928
172	2365517 3909 535 49730 20.002347828094 20.1750274304 129 56 136 15632 2012192
173	2369426 1976 538 49526 20.002347828094 20.174467634871 66 28 108 5216 503104
174	2371402 1926 538 49526 20.002347828094 20.174467634871 66 1 66 2211 98021
175	2373328 8645 553 49631 20.002348680877 20.1746977019 286 14 164 29256 4421560
176	2381973 657 553 7154 20.002348680877 20.025181478105 23 88 88 2024 178112
177	2382630 657 553 7154 20.002348680877 20.025181478105 23 88 88 2024 178112
178	2383287 7870 553 49631 20.002348680877 20.1746977019 261 14 164 25156 3749160
179	2391157 5215 553 49453 20.002348680877 20.174293882986 171 60 136 21508 2820208
180	2396372 5215 556 49456 20.002348680877 20.174293882986 171 32 108 16720 1749824
181	2401587 5130 556 49456 20.002348680877 20.174293882986 171 1 171 14706 1681386
182	2406717 548 559 7160 20.002348802403 20.025181599631 19 88 88 1672 147136
183	2407265 548 559 7160 20.002348802403 20.025181599631 19 88 88 1672 147136
184	2407813 25854 575 49220 20.002476802403 20.173476024189 834 0 4.4e-005 0.012232 5.38208e-007
185	2433667 1383 582 48750 20.002477876876 20.171923794218 45 100 100 4500 450000
186	2435050 3084 582 28738 0.1 20.1 201 0 200000 200000 40000000000
187	2438134 2241 582 47941 20.002477876876 20.169497077407 73 100 100 7300 730000
188	2440375 4785 650 49658 20.002641951349 20.174818232764 156 100 100 15600 1560000
189	2445160 3084 650 28620 0.1 20.1 201 0 720000 720000 518400000000
190	2448244 1275 755 45579 20.006433850194 20.161048026117 42 28 108 3916 404048
191	2449519 2779 758 49397 20.006433850194 20.17413586262 91 56 136 11756 1562576
192	2452298 2779 758 49397 20.006433850194 20.17413586262 91 84 164 14304 2292256
193	2455077 5216 758 49638 20.006433850194 20.174741153973 182 0 8 229 647
194	2460293 2697 758 49397 20.006433850194 20.17413586262 93 0 31 725 8047
195	2462990 19106 758 49637 20.006433850194 20.174741153973 668 0 1 334 334
196	2482096 2785 760 49638 20.006433850194 20.174741153973 91 84 164 14304 2292256
197	2484881 3575 760 49638 20.006433850194 20.174741153973 91 0 0.002962573786 0.045223427377 5.1588718949965e-005
198	2488456 5220 760 49694 20.006433850194 20.174863311555 182 0 2 177 263
199	2493676 5812 760 49638 20.006433850194 20.174741153973 163 24000000 24000000 3912000000 9.3888e+016
200	2499488 4918 760 49638 20.006433850194 20.174741153973 163 14 164 15532 2339928
201	2504406 5332 760 49694 20.006433850194 20.174863311555 186 0 1 93 93
202	2509738 18684 761 49650 20.006433850194 20.174817153973 652 0 2 652 978
203	2528422 4918 770 49649 20.006485850194 20.174817153973 163 14 164 15532 2339928
204	2533340 144 770 3461 20.006485850194 20.015951912427 5 88 88 440 38720
205	2533484 144 770 3461 20.006485850194 20.015951912427 5 88 88 440 38720
206	2533628 4858 770 49649 20.006485850194 20.174817153973 161 14 164 15284 2305976
207	2538486 3768 770 49694 20.006485850194 20.174863311555 91 5.2e-005 0.001320462463 0.029550649483 1.7293930327783e-005
208	2542254 2411 815 47508 20.006794208938 20.168009043132 79 28 108 7984 846016
209	2544665 2441 818 47517 20.006794208938 20.168009043132 80 56 136 10332 1373552
210	2547106 2441 818 47517 20.006794208938 20.168009043132 80 84 164 12572 2014864
211	2549547 4573 818 47680 20.006794208938 20.168485454518 160 0 3 192 364
212	2554120 2422 818 47741 20.006794208938 20.168609431042 84 0 27 601 6677
213	2556542 12302 818 47797 20.006794208938 20.168867012488 430 0 1 215 215
214	2568844 2438 820 47680 20.006794208938 20.168485454518 80 84 164 12572 2014864
215	2571282 3024 820 47680 20.006794208938 20.168485454518 80 0 0.000886612074 0.019152826543 6.9802170418777e-006
216	2574306 4566 820 47860 20.006794208938 20.168990570458 160 0 2 164 248
217	2578872 4696 820 48617 20.006794208938 20.171485015904 132 24000000 24000000 3168000000 7.6032e+016
218	2583568 3980 820 48627 20.006794208938 20.171501015904 132 14 164 13820 2112016
219	2587548 4788 820 47860 20.006794208938 20.168990570458 168 0 1 84 84
220	2592336 15088 821 48642 20.006794208938 20.171529015904 528 0 2 528 792
221	2607424 3980 830 48641 20.006846208938 20.171529015904 132 14 164 13820 2112016
222	2611404 86 830 3870 20.006846208938 20.016845076238 3 88 88 264 23232
223	2611490 86 830 3870 20.006846208938 20.016845076238 3 88 88 264 23232
224	2611576 3861 830 48641 20.006846208938 20.171529015904 128 14 164 13244 2024272
225	2615437 3302 830 47860 20.006846208938 20.168990570458 80 5.2e-005 0.002243427099 0.026037461083 1.5681679288885e-005
226	2618739 3894 934 48641 20.007211182092 20.171529015904 129 14 164 13556 2088784
227	2622633 27618 943 49692 20.007212557412 20.174863309421 914 14 164 81216 12296304
228	2650251 27494 943 49692 20.007212557412 20.174863309421 910 14 164 80560 12188720
229	2677745 31205 943 49742 20.007212557412 20.175029215752 1031 14 164 96948 14816744
230	2708950 27494 943 49692 20.007212557412 20.174863309421 910 14 164 80560 12188720
231	2736444 3747 982 48617 20.007259155246 20.171485015904 125 14 164 8870 1286260
232	2740191 1413 1010 48621 20.007441155246 20.171485015904 46 100 100 4600 460000
233	2741604 3284 1010 28541 0.1 20.1 201 0 208000 208000 43264000000
234	2744888 2210 1010 47505 20.007441155246 20.168009043132 72 100 100 7200 720000
235	2747098 174 1524 6391 20.009141460496 20.023392199143 6 88 88 528 46464
236	2747272 174 1524 6391 20.009141460496 20.023392199143 6 88 88 528 46464
237	2747446 6705 1533 49421 20.009142534969 20.174180941411 223 14 164 18690 2769964
238	2754151 329 1533 45468 20.009142534969 20.16059213123 11 14 164 1122 157612
239	2754480 1916 1539 49740 20.009143741053 20.17502892119 63 14 164 7248 1117400
240	2756396 1925 1545 48515 20.009166973941 20.171006390721 63 14 164 8602 1380908
241	2758321 1956 1547 48519 20.009167118472 20.171006485034 64 14 164 8686 1387964
242	2760277 119 1566 45696 20.0094823726 20.161414160303 4 84 164 576 87744
243	2760396 120 1581 18231 20.009484359177 20.065372341856 4 84 164 576 87744
244	2760516 2175 2224 49196 20.012100445828 20.173433057177 71 28 108 7200 763584
245	2762691 4108 2227 49734 20.012100445828 20.1750274304 134 56 136 17756 2387696
246	2766799 4108 2227 49734 20.012100445828 20.1750274304 134 84 164 21508 3487088
247	2770907 7662 2227 49734 20.012100445828 20.1750274304 267 0 4 296 542
248	2778569 4770 2227 49734 20.012100445828 20.1750274304 164 0 88 1579 34261
249	2783339 26905 2227 49759 20.012100445828 20.1750714304 937 0 1 469 469
250	2810244 4076 2237 49370 20.012224445828 20.174057594139 133 84 164 21344 3460192
251	2814320 5128 2237 49370 20.012224445828 20.174057594139 133 5.2e-005 0.001609341104 0.040442181352 2.1080906389123e-005
252	2819448 7628 2237 49495 20.012224445828 20.174339634871 266 0 2 287 441
253	2827076 9705 2237 49730 20.012224445828 20.1750274304 272 24000000 24000000 6528000000 1.56672e+017
254	2836781 8229 2237 49746 20.012224445828 20.1750434304 272 14 164 27710 4268596
255	2845010 9346 2237 49495 20.012224445828 20.174339634871 326 0 1 163 163
256	2854356 31204 2238 49759 20.012224445828 20.1750714304 1088 0 2 1088 1632
257	2885560 8229 2247 49758 20.012276445828 20.1750714304 272 14 164 27710 4268596
258	2893789 8142 2247 49758 20.012276445828 20.1750714304 269 14 164 27446 4245364
259	2901931 7308 2247 49758 20.012276445828 20.1750714304 242 14 164 22870 3481556
260	2909239 4698 2260 49694 20.012278714309 20.174863311555 156 14 164 12444 1840056
261	2913937 4774 2282 49649 20.012322714309 20.174817153973 158 14 164 15092 2301208
262	2918711 6376 2287 49421 20.012323790953 20.174180941411 212 14 164 17568 2612352
263	2925087 6376 2287 49421 20.012323790953 20.174180941411 212 14 164 17568 2612352
264	2931463 6376 2287 49421 20.012323790953 20.174180941411 212 14 164 17568 2612352
265	2937839 7200 2295 49730 20.01232498279 20.1750274304 239 14 164 19456 2897624
266	2945039 5489 2295 49495 20.01232498279 20.174339634871 133 9.6333564e-005 0.003206450713 0.067093780843 8.2777797119775e-005
267	2950528 3306 2359 49459 20.012901458449 20.174293882986 108 28 108 11268 1205552
268	2953834 3276 2362 49465 20.012901458449 20.174293882986 107 56 136 14156 1902736
269	2957110 3276 2362 49465 20.012901458449 20.174293882986 107 84 164 17152 2779360
270	2960386 6147 2362 49505 20.012901458449 20.174389882986 214 0 14 505 2959
271	2966533 4799 2362 49560 20.012901458449 20.174513386756 164 0 250 2356 119620
272	2971332 39704 2362 49568 20.012901458449 20.174574386756 1384 0 1 692 692
273	3011036 3278 2370 49505 20.013043458449 20.174389882986 107 84 164 17152 2779360
274	3014314 4222 2370 49505 20.013043458449 20.174389882986 107 7.8e-005 0.014400904985 0.22598696611 0.0018676564474903
275	3018536 6142 2370 49631 20.013043458449 20.1746977019 214 0 2 257 407
276	3024678 11487 2370 49569 20.013043458449 20.174574386756 321 24000000 24000000 7704000000 1.84896e+017
277	3036165 9721 2370 49569 20.013043458449 20.174574386756 321 14 164 28698 4343204
278	3045886 9433 2370 49631 20.013043458449 20.1746977019 328 0 1 164 164
279	3055319 36964 2371 49580 20.013043458449 20.174650386756 1284 0 2 1284 1926
280	3092283 9721 2380 49579 20.013095458449 20.174650386756 321 14 164 28698 4343204
281	3102004 9692 2380 49579 20.013095458449 20.174650386756 320 14 164 28610 4335460
282	3111696 7962 2380 49579 20.013095458449 20.174650386756 264 14 164 19350 2810132
283	3119658 7988 2430 49631 20.013143016419 20.1746977019 263 14 164 27232 4243448
284	3127646 4439 2430 49631 20.013143016419 20.1746977019 107 9.950377e-005 0.008044450781 0.118476488867 0.00034495600761579
285	3132085 4558 2461 49457 20.013253016419 20.174293882986 148 100 100 14800 1480000
286	3136643 3284 2461 28119 0.1 20.1 201 0 568000 568000 322624000000
287	3139927 3164 2461 49457 20.013253016419 20.174293882986 103 100 100 10300 1030000
288	3143091 522 2613 45577 20.01364792959 20.161048026117 17 100 100 1700 170000
289	3143613 3283 2613 34619 0.1 20.1 201 0 56000 56000 3136000000
290	3146896 1566 2613 45577 20.01364792959 20.161048026117 51 100 100 5100 510000
291	3148462 2053 2663 49588 20.013831942528 20.174652044328 67 28 108 6852 728048
292	3150515 2053 2666 49594 20.013831942528 20.174652044328 67 56 136 8728 1164288
293	3152568 2053 2666 49594 20.013831942528 20.174652044328 67 84 164 10604 1705584
294	3154621 3852 2666 49705 20.013831942528 20.174951263618 134 0 4 143 239
295	3158473 2039 2666 49761 20.013831942528 20.175071597182 70 0 31 578 7144
296	3160512 15055 2669 49761 20.013859942363 20.175071597182 525 0 1 263 263
297	3175567 2057 2943 49705 20.014483979448 20.174951263618 67 84 164 10604 1705584
298	3177624 2616 2943 49705 20.014483979448 20.174951263618 67 7.8e-005 0.001218687007 0.020910068959 1.0711408677594e-005
299	3180240 3827 2943 49761 20.014483979448 20.175071597182 133 0 2 137 207
300	3184067 3686 2943 49705 20.014483979448 20.174951263618 103 24000000 24000000 2472000000 5.9328e+016
301	3187753 3132 2943 49705 20.014483979448 20.174951263618 103 14 164 11408 1766040
302	3190885 3973 2943 49761 20.014483979448 20.175071597182 138 0 1 69 69
303	3194858 11860 2944 49728 20.014483979448 20.175027263618 412 0 2 412 618
304	3206718 3132 2953 49727 20.014535979448 20.175027263618 103 14 164 11408 1766040
305	3209850 116 2953 6479 20.014535979448 20.023498151277 4 88 88 352 30976
306	3209966 116 2953 6479 20.014535979448 20.023498151277 4 88 88 352 30976
307	3210082 3039 2953 49727 20.014535979448 20.175027263618 100 14 164 10916 1685352
308	3213121 2738 2953 49761 20.014535979448 20.175071597182 66 5.2e-005 0.001853913925 0.025378727268 1.8804625453228e-005
309	3215859 3709 3076 49738 20.014774473684 20.17502800949 121 14 164 16612 2662272
310	3219568 3703 3078 49736 20.014774636019 20.175027864959 121 14 164 16612 2662272
311	3223271 29 3081 3081 20.014775212139 20.014775212139 1 88 88 88 7744
312	3223300 29 3081 3081 20.014775212139 20.014775212139 1 88 88 88 7744
313	3223329 60 3222 28323 20.015357338391 20.100886792826 2 84 164 248 33952
314	3223389 3587 3431 49742 20.015795404654 20.175029215752 117 14 164 15732 2520440
315	3226976 3671 3433 49744 20.015795566989 20.175029373263 120 14 164 16224 2601128
316	3230647 1260 3543 49527 20.016091180908 20.174467634871 41 100 100 4100 410000
317	3231907 3284 3543 29289 0.1 20.1 201 0 184000 184000 33856000000
318	3235191 2001 3543 49193 20.016091180908 20.173433057177 65 100 100 6500 650000
319	3237192 214 3745 45573 20.016519001621 20.161048026117 7 84 164 1068 168432
320	3237406 87 4129 4295 20.017467908079 20.017962283646 3 88 88 264 23232
321	3237493 87 4129 4295 20.017467908079 20.017962283646 3 88 88 264 23232
322	3237580 2894 4883 49761 20.019447002724 20.175071597182 96 14 164 6364 906776
323	3240474 954 4887 49586 20.019447002724 20.174652044328 31 100 100 3100 310000
324	3241428 3284 4887 29768 0.1 20.1 201 0 128000 128000 16384000000
325	3244712 2862 4887 49586 20.019447002724 20.174652044328 93 100 100 9300 930000
326	3247574 3016 4915 49727 20.019491002724 20.175027263618 99 14 164 11056 1735064
327	3250590 60 6079 18226 20.02257882637 20.065371267383 2 164 164 328 53792
328	3250650 1759 6222 48608 20.022918255873 20.171483236919 57 164 164 9348 1533072
329	3252409 3042 6277 49115 20.023089049789 20.173158870875 99 164 164 16236 2662704
330	3255451 921 6515 48671 20.023646308788 20.171657761776 30 84 164 4840 787040
331	3256372 1081 6526 49118 20.023648418433 20.173159947532 35 84 164 5660 921520
332	3257453 556 7956 48617 20.027786650563 20.171485015904 18 164 164 2952 484128
333	3258009 431 8679 48072 20.029995096485 20.169908015536 14 164 164 2296 376544
334	3258440 775 10566 48681 20.035173857491 20.171659513661 25 164 164 4100 672400
335	3259215 279 10566 46853 20.035173857491 20.165764801227 9 164 164 1476 242064
336	3259494 279 10566 46853 20.035173857491 20.165764801227 9 164 164 1476 242064
337	3259773 93 12579 28254 20.042889870483 20.100661133547 3 164 164 492 80688
338	3259866 279 12582 36335 20.042890037265 20.130060769076 9 164 164 1476 242064
339	3260145 62 14589 36335 20.052215774422 20.130060769076 2 164 164 328 53792
340	3260207 62 14589 36335 20.052215774422 20.130060769076 2 164 164 328 53792
341	3260269 124 20794 39895 20.075761476411 20.143778653371 4 164 164 656 107584
342	3260393 124 20794 39895 20.075761476411 20.143778653371 4 164 164 656 107584
343	3260517 62 25806 38923 20.092920960592 20.139891323879 2 164 164 328 53792
344	3260579 62 25806 38923 20.092920960592 20.139891323879 2 164 164 328 53792
345	3260641 31 29449 29449 20.105552936847 20.105552936847 1 164 164 164 26896
346	3260672 31 29449 29449 20.105552936847 20.105552936847 1 164 164 164 26896
189	3260703 43 49761 49761 20.175071597182 20.175071597182 1 703328.58207338 703328.58207338 703328.58207338 494671094361.35
vector 347 Network9.edge[1].app[0] throughput:vector ETV
attr source throughput(packetReceived)
attr title "throughput, vector"
attr unit bps
186	3260892 43 49761 49761 20.175071597182 20.175071597182 1 213129.87335557 213129.87335557 213129.87335557 45424342916.561
233	3260935 43 49761 49761 20.175071597182 20.175071597182 1 213129.87335557 213129.87335557 213129.87335557 45424342916.561
286	3260978 43 49761 49761 20.175071597182 20.175071597182 1 820550.01241894 820550.01241894 820550.01241894 673302322880.73
289	3261021 43 49761 49761 20.175071597182 20.175071597182 1 106564.93667778 106564.93667778 106564.93667778 11356085729.14
317	3261064 43 49761 49761 20.175071597182 20.175071597182 1 191816.88602001 191816.88602001 191816.88602001 36793717762.415
324	3261107 43 49761 49761 20.175071597182 20.175071597182 1 159847.40501668 159847.40501668 159847.40501668 25551192890.566
347	3261150 3508 49761 49761 0.1 20.175071597182 202 0 0 0 0

