version 2
run General-0-20220507-23:31:44-18392
attr configname General
attr datetime 20220507-23:31:44
attr experiment General
attr inifile network9.ini
attr iterationvars ""
attr iterationvarsf ""
attr measurement ""
attr network Network9
attr processid 18392
attr repetition 0
attr replication #0
attr resultdir results
attr runnumber 0
attr seedset 0
param *.node[*].mobility.typename "\"VeinsInetMobility\""
param *.manager.updateInterval 0.1s
param *.manager.host "\"localhost\""
param *.manager.port 9999
param *.manager.autoShutdown true
param *.manager.launchConfig "xmldoc(\"erlangen.launchd.xml\")"
param *.manager.moduleType "\"vanettutorials.veins_inet.VeinsInetCar1\""
param *.configurator.addStaticRoutes false
param *.*.wlan[0].opMode "\"a\""
param *.*.wlan[0].radio.bandName "\"5.9 GHz\""
param *.*.wlan[0].radio.channelNumber 3
param *.*.wlan[0].radio.transmitter.power 100mW
param *.*.wlan[0].radio.bandwidth "10 MHz"
param *.*.wlan[0].radio.transmitter.communicationRange 500m
param *.*.ipv4.arp.typename "\"GlobalArp\""
param *.*.ipv4.routingTable.netmaskRoutes "\"\""
param *.configurator.config "xml(\"<config><interface hosts='edge[0]' address='10.0.0.1' netmask='255.255.255.0'/><interface hosts='edge[1]' address='10.0.0.6' netmask='255.255.255.0'/><interface hosts='edge[2]' address='10.0.0.7' netmask='255.255.255.0'/><interface hosts='rsu[0]' address='10.0.0.2' netmask='255.255.255.0'/><interface hosts='rsu[1]' address='10.0.0.5' netmask='255.255.255.0'/><interface hosts='rsu[2]' address='10.0.0.8' netmask='255.255.255.0'/><interface hosts='meco[0]' address='10.0.0.4' netmask='255.255.255.0'/></config>\")"
param *.configurator.dumpAddresses true
param *.configurator.dumpTopology true
param *.configurator.dumpLinks true
param *.configurator.dumpRoutes true
param *.node[*].numApps 1
param *.node[*].app[0].typename "\"vanettutorials.veins_inet.vfognetsim.vehicleMessages.VeinsInetAppForVehicle1\""
param *.node[*].app[0].localPort 5000
param *.node[*].app[0].messageLength 1000B
param *.node[*].app[0].sendInterval exponential(12ms)
param *.node[*].app[0].destPort 5000
param **.node[*].ipv4.configurator.typename "\"HostAutoConfigurator\""
param **.node[*].ipv4.configurator.interfaces "\"wlan0\""
param *.edge[*].numApps 1
param *.edge[*].app[0].typename "\"vanettutorials.veins_inet.vfognetsim.edgeMessages.VeinsInetAppForEdge1\""
param *.edge[*].app[0].localPort 5000
param *.edge[*].app[0].messageLength 1000B
param *.edge[*].app[0].sendInterval exponential(12ms)
param *.edge[*].app[0].destPort 5000
param *.edge[1].app[0].id 21
param *.edge[*].mobility.typename "\"CircleMobility\""
param *.edge[0].mobility.cx 2100m
param *.edge[0].mobility.cy 1650m
param *.edge[0].mobility.r 80m
param *.edge[0].mobility.speed 0mps
param *.edge[0].mobility.startAngle 90deg
param *.edge[1].mobility.cx 2000m
param *.edge[1].mobility.cy 1250m
param *.edge[1].mobility.r 80m
param *.edge[1].mobility.startAngle 90deg
param *.edge[1].mobility.speed 0mps
param *.edge[2].mobility.cx 1900m
param *.edge[2].mobility.cy 1050m
param *.edge[2].mobility.r 80m
param *.edge[2].mobility.speed 0mps
param *.edge[2].mobility.startAngle 90deg
param *.rsu[*].numApps 1
param *.rsu[*].mobility.typename "\"CircleMobility\""
param *.rsu[0].mobility.cx 2100m
param *.rsu[0].mobility.cy 1600m
param *.rsu[0].mobility.r 80m
param *.rsu[0].mobility.speed 0mps
param *.rsu[0].mobility.startAngle 90deg
param *.rsu[1].mobility.cx 2000m
param *.rsu[1].mobility.cy 1200m
param *.rsu[1].mobility.r 80m
param *.rsu[1].mobility.startAngle 90deg
param *.rsu[1].mobility.speed 0mps
param *.rsu[2].mobility.cx 1900m
param *.rsu[2].mobility.cy 1000m
param *.rsu[2].mobility.r 80m
param *.rsu[2].mobility.speed 0mps
param *.rsu[2].mobility.startAngle 90deg
param *.rsu[*].app[0].typename "\"vanettutorials.veins_inet.vfognetsim.rsuMessages.VeinsInetAppForRSU1\""
param *.rsu[*].app[0].localPort 5000
param *.rsu[*].app[0].messageLength 1000B
param *.rsu[*].app[0].sendInterval exponential(12ms)
param *.rsu[*].app[0].destPort 5000
param *.meco[*].numApps 1
param *.meco[*].app[0].typename "\"vanettutorials.veins_inet.vfognetsim.mecoMessages.VeinsInetAppForMeco\""
param *.meco[*].app[0].localPort 5000
param *.meco[*].app[0].messageLength 1000B
param *.meco[*].app[0].sendInterval exponential(12ms)
param *.meco[*].app[0].destPort 5000

vector 0 Network9.edge[0].wlan[0].radio radioMode:vector ETV
attr interpolationmode sample-hold
attr source radioModeChanged
attr title "Radio mode, vector"
vector 1 Network9.edge[0].wlan[0].radio radioChannel:vector ETV
attr interpolationmode sample-hold
attr source radioChannelChanged
attr title "Radio channel, vector"
vector 2 Network9.edge[1].wlan[0].radio radioMode:vector ETV
attr interpolationmode sample-hold
attr source radioModeChanged
attr title "Radio mode, vector"
vector 3 Network9.edge[1].wlan[0].radio radioChannel:vector ETV
attr interpolationmode sample-hold
attr source radioChannelChanged
attr title "Radio channel, vector"
vector 4 Network9.edge[2].wlan[0].radio radioMode:vector ETV
attr interpolationmode sample-hold
attr source radioModeChanged
attr title "Radio mode, vector"
vector 5 Network9.edge[2].wlan[0].radio radioChannel:vector ETV
attr interpolationmode sample-hold
attr source radioChannelChanged
attr title "Radio channel, vector"
vector 6 Network9.rsu[0].wlan[0].radio radioMode:vector ETV
attr interpolationmode sample-hold
attr source radioModeChanged
attr title "Radio mode, vector"
vector 7 Network9.rsu[0].wlan[0].radio radioChannel:vector ETV
attr interpolationmode sample-hold
attr source radioChannelChanged
attr title "Radio channel, vector"
vector 8 Network9.rsu[1].wlan[0].radio radioMode:vector ETV
attr interpolationmode sample-hold
attr source radioModeChanged
attr title "Radio mode, vector"
vector 9 Network9.rsu[1].wlan[0].radio radioChannel:vector ETV
attr interpolationmode sample-hold
attr source radioChannelChanged
attr title "Radio channel, vector"
vector 10 Network9.rsu[2].wlan[0].radio radioMode:vector ETV
attr interpolationmode sample-hold
attr source radioModeChanged
attr title "Radio mode, vector"
vector 11 Network9.rsu[2].wlan[0].radio radioChannel:vector ETV
attr interpolationmode sample-hold
attr source radioChannelChanged
attr title "Radio channel, vector"
vector 12 Network9.meco[0].wlan[0].radio radioMode:vector ETV
attr interpolationmode sample-hold
attr source radioModeChanged
attr title "Radio mode, vector"
vector 13 Network9.meco[0].wlan[0].radio radioChannel:vector ETV
attr interpolationmode sample-hold
attr source radioChannelChanged
attr title "Radio channel, vector"
vector 14 Network9.edge[0].wlan[0].radio receptionState:vector ETV
attr interpolationmode sample-hold
attr source receptionStateChanged
attr title "Radio reception state, vector"
vector 15 Network9.edge[1].wlan[0].radio receptionState:vector ETV
attr interpolationmode sample-hold
attr source receptionStateChanged
attr title "Radio reception state, vector"
vector 16 Network9.edge[2].wlan[0].radio receptionState:vector ETV
attr interpolationmode sample-hold
attr source receptionStateChanged
attr title "Radio reception state, vector"
vector 17 Network9.rsu[0].wlan[0].radio receptionState:vector ETV
attr interpolationmode sample-hold
attr source receptionStateChanged
attr title "Radio reception state, vector"
vector 18 Network9.rsu[1].wlan[0].radio receptionState:vector ETV
attr interpolationmode sample-hold
attr source receptionStateChanged
attr title "Radio reception state, vector"
vector 19 Network9.rsu[2].wlan[0].radio receptionState:vector ETV
attr interpolationmode sample-hold
attr source receptionStateChanged
attr title "Radio reception state, vector"
vector 20 Network9.meco[0].wlan[0].radio receptionState:vector ETV
attr interpolationmode sample-hold
attr source receptionStateChanged
attr title "Radio reception state, vector"
vector 21 Network9.edge[0].wlan[0].mac.dcf.recoveryProcedure contentionWindowChanged:vector ETV
attr interpolationmode sample-hold
attr title "contention window, vector"
vector 22 Network9.edge[1].wlan[0].mac.dcf.recoveryProcedure contentionWindowChanged:vector ETV
attr interpolationmode sample-hold
attr title "contention window, vector"
vector 23 Network9.edge[2].wlan[0].mac.dcf.recoveryProcedure contentionWindowChanged:vector ETV
attr interpolationmode sample-hold
attr title "contention window, vector"
vector 24 Network9.rsu[0].wlan[0].mac.dcf.recoveryProcedure contentionWindowChanged:vector ETV
attr interpolationmode sample-hold
attr title "contention window, vector"
vector 25 Network9.rsu[1].wlan[0].mac.dcf.recoveryProcedure contentionWindowChanged:vector ETV
attr interpolationmode sample-hold
attr title "contention window, vector"
vector 26 Network9.rsu[2].wlan[0].mac.dcf.recoveryProcedure contentionWindowChanged:vector ETV
attr interpolationmode sample-hold
attr title "contention window, vector"
vector 27 Network9.meco[0].wlan[0].mac.dcf.recoveryProcedure contentionWindowChanged:vector ETV
attr interpolationmode sample-hold
attr title "contention window, vector"
vector 28 Network9.node[0].wlan[0].radio radioMode:vector ETV
attr interpolationmode sample-hold
attr source radioModeChanged
attr title "Radio mode, vector"
vector 29 Network9.node[0].wlan[0].radio radioChannel:vector ETV
attr interpolationmode sample-hold
attr source radioChannelChanged
attr title "Radio channel, vector"
vector 30 Network9.node[0].wlan[0].radio receptionState:vector ETV
attr interpolationmode sample-hold
attr source receptionStateChanged
attr title "Radio reception state, vector"
vector 31 Network9.node[0].wlan[0].mac.dcf.recoveryProcedure contentionWindowChanged:vector ETV
attr interpolationmode sample-hold
attr title "contention window, vector"
vector 32 Network9.node[0].app[0] packetSent:vector(packetBytes) ETV
attr interpolationmode none
attr source packetSent
attr title "packets sent, vector(packetBytes)"
vector 33 Network9.node[0].udp packetSent:vector(packetBytes) ETV
attr interpolationmode none
attr source packetSent
attr title "packets sent, vector(packetBytes)"
vector 34 Network9.node[0].wlan[0].mac packetReceivedFromUpper:vector(packetBytes) ETV
attr interpolationmode none
attr title "packets received from upper layer, vector(packetBytes)"
vector 35 Network9.node[0].wlan[0].mac.dcf.channelAccess.pendingQueue packetPushed:vector(packetBytes) ETV
attr interpolationmode none
attr title "packet pushed, vector(packetBytes)"
vector 36 Network9.node[0].wlan[0].mac.dcf.channelAccess.pendingQueue queueLength:vector ETV
attr interpolationmode sample-hold
attr source "count(packetPushed) - count(packetPopped) - count(packetRemoved) - count(packetDropped)"
attr title "queue length, vector"
vector 37 Network9.node[0].wlan[0].mac.dcf.channelAccess.contention backoffPeriodGenerated:vector ETV
attr interpolationmode none
attr title "backoff periods, vector"
vector 38 Network9.node[0].wlan[0].mac.dcf.channelAccess.contention backoffActive:vector ETV
attr interpolationmode sample-hold
attr source count(backoffStarted)-count(backoffStopped)
attr title "backoff active, vector"
vector 39 Network9.node[0].wlan[0].mac.dcf.channelAccess.pendingQueue packetPopped:vector(packetBytes) ETV
attr interpolationmode none
attr title "packet popped, vector(packetBytes)"
vector 40 Network9.node[0].wlan[0].mac.dcf.channelAccess.pendingQueue queueingTime:vector ETV
attr interpolationmode none
attr source queueingTime(packetPopped)
attr title "queueing times, vector"
attr unit s
vector 41 Network9.node[0].wlan[0].mac.dcf.channelAccess.inProgressFrames queueLength:vector ETV
attr interpolationmode sample-hold
attr source "count(packetEnqueued) - count(packetDequeued)"
attr title "queue length, vector"
vector 42 Network9.node[0].wlan[0].mac.dcf datarateSelected:vector ETV
attr interpolationmode none
attr title "datarates selected, vector"
vector 43 Network9.node[0].wlan[0].mac packetSentToLower:vector(packetBytes) ETV
attr interpolationmode none
attr title "packets sent to lower layer, vector(packetBytes)"
vector 44 Network9.node[0].wlan[0].mac.dcf frameSequenceActive:vector ETV
attr interpolationmode sample-hold
attr source count(frameSequenceStarted)-count(frameSequenceFinished)
attr title "frame sequence active, vector"
vector 45 Network9.node[0].wlan[0].radio transmissionState:vector ETV
attr interpolationmode sample-hold
attr source transmissionStateChanged
attr title "Radio transmission state, vector"
vector 46 Network9.node[0].wlan[0].mac.dcf packetSentToPeer:vector(packetBytes) ETV
attr interpolationmode none
attr title "packets sent, vector(packetBytes)"
vector 47 Network9.node[0].wlan[0].mac.dcf packetSentToPeerMulticast:vector(packetBytes) ETV
attr interpolationmode none
attr source ieee80211Multicast(packetSentToPeer)
attr title "packets sent: multicast, vector(packetBytes)"
vector 48 Network9.node[0].wlan[0].mac.dcf packetSentToPeerBroadcast:vector(packetBytes) ETV
attr interpolationmode none
attr source ieee80211Broadcast(packetSentToPeer)
attr title "packets sent: broadcast , vector(packetBytes)"
vector 49 Network9.node[0].wlan[0].mac.dcf packetSentToPeerWithoutRetry:vector(packetBytes) ETV
attr interpolationmode none
attr source ieee80211NotRetry(packetSentToPeer)
attr title "packets sent: without retry, vector(packetBytes)"
vector 50 Network9.node[0].wlan[0].mac.dcf.channelAccess.inProgressFrames queueingTime:vector ETV
attr interpolationmode none
attr source queueingTime(packetDequeued)
attr title "queueing times, vector"
vector 51 Network9.rsu[0].wlan[0].mac packetReceivedFromLower:vector(packetBytes) ETV
attr interpolationmode none
attr title "packets received from lower layer, vector(packetBytes)"
vector 52 Network9.rsu[0].wlan[0].mac.dcf packetReceivedFromPeer:vector(packetBytes) ETV
attr interpolationmode none
attr title "packets received, vector(packetBytes)"
vector 53 Network9.rsu[0].wlan[0].mac.dcf packetReceivedFromPeerMulticast:vector(packetBytes) ETV
attr interpolationmode none
attr source ieee80211Multicast(packetReceivedFromPeer)
attr title "packets received: multicast, vector(packetBytes)"
vector 54 Network9.rsu[0].wlan[0].mac.dcf packetReceivedFromPeerBroadcast:vector(packetBytes) ETV
attr interpolationmode none
attr source ieee80211Broadcast(packetReceivedFromPeer)
attr title "packets received: broadcast, vector(packetBytes)"
vector 55 Network9.rsu[0].wlan[0].mac.dcf packetReceivedFromPeerWithoutRetry:vector(packetBytes) ETV
attr interpolationmode none
attr source ieee80211NotRetry(packetReceivedFromPeer)
attr title "packets received: without retry, vector(packetBytes)"
vector 56 Network9.rsu[0].wlan[0].mac packetSentToUpper:vector(packetBytes) ETV
attr interpolationmode none
attr title "packets sent to upper layer, vector(packetBytes)"
vector 57 Network9.rsu[0].udp packetReceived:vector(packetBytes) ETV
attr interpolationmode none
attr source packetReceived
attr title "packets received, vector(packetBytes)"
vector 58 Network9.rsu[0].udp passedUpPk:vector(count) ETV
attr interpolationmode none
attr source packetSentToUpper
attr title "packets passed up, vector(count)"
vector 59 Network9.rsu[0].udp packetSent:vector(packetBytes) ETV
attr interpolationmode none
attr source packetSent
attr title "packets sent, vector(packetBytes)"
vector 60 Network9.rsu[0].wlan[0].mac packetReceivedFromUpper:vector(packetBytes) ETV
attr interpolationmode none
attr title "packets received from upper layer, vector(packetBytes)"
vector 61 Network9.rsu[0].wlan[0].mac.dcf.channelAccess.pendingQueue packetPushed:vector(packetBytes) ETV
attr interpolationmode none
attr title "packet pushed, vector(packetBytes)"
vector 62 Network9.rsu[0].wlan[0].mac.dcf.channelAccess.pendingQueue queueLength:vector ETV
attr interpolationmode sample-hold
attr source "count(packetPushed) - count(packetPopped) - count(packetRemoved) - count(packetDropped)"
attr title "queue length, vector"
vector 63 Network9.rsu[0].wlan[0].mac.dcf.channelAccess.contention backoffPeriodGenerated:vector ETV
attr interpolationmode none
attr title "backoff periods, vector"
vector 64 Network9.rsu[0].wlan[0].mac.dcf.channelAccess.contention backoffActive:vector ETV
attr interpolationmode sample-hold
attr source count(backoffStarted)-count(backoffStopped)
attr title "backoff active, vector"
vector 65 Network9.edge[0].wlan[0].mac packetReceivedFromLower:vector(packetBytes) ETV
attr interpolationmode none
attr title "packets received from lower layer, vector(packetBytes)"
vector 66 Network9.edge[0].wlan[0].mac.dcf packetReceivedFromPeer:vector(packetBytes) ETV
attr interpolationmode none
attr title "packets received, vector(packetBytes)"
vector 67 Network9.edge[0].wlan[0].mac.dcf packetReceivedFromPeerMulticast:vector(packetBytes) ETV
attr interpolationmode none
attr source ieee80211Multicast(packetReceivedFromPeer)
attr title "packets received: multicast, vector(packetBytes)"
vector 68 Network9.edge[0].wlan[0].mac.dcf packetReceivedFromPeerBroadcast:vector(packetBytes) ETV
attr interpolationmode none
attr source ieee80211Broadcast(packetReceivedFromPeer)
attr title "packets received: broadcast, vector(packetBytes)"
vector 69 Network9.edge[0].wlan[0].mac.dcf packetReceivedFromPeerWithoutRetry:vector(packetBytes) ETV
attr interpolationmode none
attr source ieee80211NotRetry(packetReceivedFromPeer)
attr title "packets received: without retry, vector(packetBytes)"
vector 70 Network9.edge[0].wlan[0].mac packetSentToUpper:vector(packetBytes) ETV
attr interpolationmode none
attr title "packets sent to upper layer, vector(packetBytes)"
vector 71 Network9.edge[0].udp packetReceived:vector(packetBytes) ETV
attr interpolationmode none
attr source packetReceived
attr title "packets received, vector(packetBytes)"
vector 72 Network9.edge[0].udp passedUpPk:vector(count) ETV
attr interpolationmode none
attr source packetSentToUpper
attr title "packets passed up, vector(count)"
vector 73 Network9.edge[1].wlan[0].mac packetReceivedFromLower:vector(packetBytes) ETV
attr interpolationmode none
attr title "packets received from lower layer, vector(packetBytes)"
vector 74 Network9.edge[1].wlan[0].mac.dcf packetReceivedFromPeer:vector(packetBytes) ETV
attr interpolationmode none
attr title "packets received, vector(packetBytes)"
vector 75 Network9.edge[1].wlan[0].mac.dcf packetReceivedFromPeerMulticast:vector(packetBytes) ETV
attr interpolationmode none
attr source ieee80211Multicast(packetReceivedFromPeer)
attr title "packets received: multicast, vector(packetBytes)"
vector 76 Network9.edge[1].wlan[0].mac.dcf packetReceivedFromPeerBroadcast:vector(packetBytes) ETV
attr interpolationmode none
attr source ieee80211Broadcast(packetReceivedFromPeer)
attr title "packets received: broadcast, vector(packetBytes)"
vector 77 Network9.edge[1].wlan[0].mac.dcf packetReceivedFromPeerWithoutRetry:vector(packetBytes) ETV
attr interpolationmode none
attr source ieee80211NotRetry(packetReceivedFromPeer)
attr title "packets received: without retry, vector(packetBytes)"
vector 78 Network9.edge[1].wlan[0].mac packetSentToUpper:vector(packetBytes) ETV
attr interpolationmode none
attr title "packets sent to upper layer, vector(packetBytes)"
vector 79 Network9.edge[1].udp packetReceived:vector(packetBytes) ETV
attr interpolationmode none
attr source packetReceived
attr title "packets received, vector(packetBytes)"
vector 80 Network9.edge[1].udp passedUpPk:vector(count) ETV
attr interpolationmode none
attr source packetSentToUpper
attr title "packets passed up, vector(count)"
vector 81 Network9.rsu[1].wlan[0].mac packetReceivedFromLower:vector(packetBytes) ETV
attr interpolationmode none
attr title "packets received from lower layer, vector(packetBytes)"
vector 82 Network9.rsu[1].wlan[0].mac.dcf packetReceivedFromPeer:vector(packetBytes) ETV
attr interpolationmode none
attr title "packets received, vector(packetBytes)"
vector 83 Network9.rsu[1].wlan[0].mac.dcf packetReceivedFromPeerMulticast:vector(packetBytes) ETV
attr interpolationmode none
attr source ieee80211Multicast(packetReceivedFromPeer)
attr title "packets received: multicast, vector(packetBytes)"
vector 84 Network9.rsu[1].wlan[0].mac.dcf packetReceivedFromPeerBroadcast:vector(packetBytes) ETV
attr interpolationmode none
attr source ieee80211Broadcast(packetReceivedFromPeer)
attr title "packets received: broadcast, vector(packetBytes)"
vector 85 Network9.rsu[1].wlan[0].mac.dcf packetReceivedFromPeerWithoutRetry:vector(packetBytes) ETV
attr interpolationmode none
attr source ieee80211NotRetry(packetReceivedFromPeer)
attr title "packets received: without retry, vector(packetBytes)"
vector 86 Network9.rsu[1].wlan[0].mac packetSentToUpper:vector(packetBytes) ETV
attr interpolationmode none
attr title "packets sent to upper layer, vector(packetBytes)"
vector 87 Network9.rsu[1].udp packetReceived:vector(packetBytes) ETV
attr interpolationmode none
attr source packetReceived
attr title "packets received, vector(packetBytes)"
vector 88 Network9.rsu[1].udp passedUpPk:vector(count) ETV
attr interpolationmode none
attr source packetSentToUpper
attr title "packets passed up, vector(count)"
vector 89 Network9.rsu[0].wlan[0].mac.dcf.channelAccess.pendingQueue packetPopped:vector(packetBytes) ETV
attr interpolationmode none
attr title "packet popped, vector(packetBytes)"
vector 90 Network9.rsu[0].wlan[0].mac.dcf.channelAccess.pendingQueue queueingTime:vector ETV
attr interpolationmode none
attr source queueingTime(packetPopped)
attr title "queueing times, vector"
attr unit s
vector 91 Network9.rsu[0].wlan[0].mac.dcf.channelAccess.inProgressFrames queueLength:vector ETV
attr interpolationmode sample-hold
attr source "count(packetEnqueued) - count(packetDequeued)"
attr title "queue length, vector"
vector 92 Network9.rsu[0].wlan[0].mac.dcf datarateSelected:vector ETV
attr interpolationmode none
attr title "datarates selected, vector"
vector 93 Network9.rsu[0].wlan[0].mac packetSentToLower:vector(packetBytes) ETV
attr interpolationmode none
attr title "packets sent to lower layer, vector(packetBytes)"
vector 94 Network9.rsu[0].wlan[0].mac.dcf frameSequenceActive:vector ETV
attr interpolationmode sample-hold
attr source count(frameSequenceStarted)-count(frameSequenceFinished)
attr title "frame sequence active, vector"
vector 95 Network9.rsu[0].wlan[0].radio transmissionState:vector ETV
attr interpolationmode sample-hold
attr source transmissionStateChanged
attr title "Radio transmission state, vector"
vector 96 Network9.rsu[0].wlan[0].mac.dcf packetSentToPeer:vector(packetBytes) ETV
attr interpolationmode none
attr title "packets sent, vector(packetBytes)"
vector 97 Network9.rsu[0].wlan[0].mac.dcf packetSentToPeerUnicast:vector(packetBytes) ETV
attr interpolationmode none
attr source ieee80211Unicast(packetSentToPeer)
attr title "packets sent: unicast, vector(packetBytes)"
vector 98 Network9.rsu[0].wlan[0].mac.dcf packetSentToPeerWithoutRetry:vector(packetBytes) ETV
attr interpolationmode none
attr source ieee80211NotRetry(packetSentToPeer)
attr title "packets sent: without retry, vector(packetBytes)"
vector 99 Network9.rsu[0].wlan[0].mac.rx nav:vector ETV
attr interpolationmode linear
attr source navChanged
attr title "network allocation vector, vector"
vector 100 Network9.edge[0].wlan[0].mac.rx nav:vector ETV
attr interpolationmode linear
attr source navChanged
attr title "network allocation vector, vector"
vector 101 Network9.edge[0].wlan[0].mac.dcf packetDrop:vector(packetBytes) ETV
attr interpolationmode none
attr source packetDropped
attr title "packet drops, vector(packetBytes)"
vector 102 Network9.edge[0].wlan[0].mac.dcf packetDropNotAddressedToUs:vector(packetBytes) ETV
attr interpolationmode none
attr source packetDropReasonIsNotAddressedToUs(packetDropped)
attr title "packet drops: not addressed to us, vector(packetBytes)"
vector 103 Network9.edge[0].wlan[0].mac packetDrop:vector(packetBytes) ETV
attr interpolationmode none
attr source packetDropped
attr title "packet drops, vector(packetBytes)"
vector 104 Network9.edge[0].wlan[0].mac packetDropNotAddressedToUs:vector(packetBytes) ETV
attr interpolationmode none
attr source packetDropReasonIsNotAddressedToUs(packetDropped)
attr title "packet drops: not addressed to us, vector(packetBytes)"
vector 105 Network9.node[0].wlan[0].mac packetReceivedFromLower:vector(packetBytes) ETV
attr interpolationmode none
attr title "packets received from lower layer, vector(packetBytes)"
vector 106 Network9.node[0].wlan[0].mac.dcf packetReceivedFromPeer:vector(packetBytes) ETV
attr interpolationmode none
attr title "packets received, vector(packetBytes)"
vector 107 Network9.node[0].wlan[0].mac.dcf packetReceivedFromPeerUnicast:vector(packetBytes) ETV
attr interpolationmode none
attr source ieee80211Unicast(packetReceivedFromPeer)
attr title "packets received: unicast, vector(packetBytes)"
vector 108 Network9.node[0].wlan[0].mac.dcf packetReceivedFromPeerWithoutRetry:vector(packetBytes) ETV
attr interpolationmode none
attr source ieee80211NotRetry(packetReceivedFromPeer)
attr title "packets received: without retry, vector(packetBytes)"
vector 109 Network9.node[0].wlan[0].mac packetSentToUpper:vector(packetBytes) ETV
attr interpolationmode none
attr title "packets sent to upper layer, vector(packetBytes)"
vector 110 Network9.node[0].udp packetReceived:vector(packetBytes) ETV
attr interpolationmode none
attr source packetReceived
attr title "packets received, vector(packetBytes)"
vector 111 Network9.node[0].udp passedUpPk:vector(count) ETV
attr interpolationmode none
attr source packetSentToUpper
attr title "packets passed up, vector(count)"
vector 112 Network9.edge[1].wlan[0].mac.rx nav:vector ETV
attr interpolationmode linear
attr source navChanged
attr title "network allocation vector, vector"
vector 113 Network9.edge[1].wlan[0].mac.dcf packetDrop:vector(packetBytes) ETV
attr interpolationmode none
attr source packetDropped
attr title "packet drops, vector(packetBytes)"
vector 114 Network9.edge[1].wlan[0].mac.dcf packetDropNotAddressedToUs:vector(packetBytes) ETV
attr interpolationmode none
attr source packetDropReasonIsNotAddressedToUs(packetDropped)
attr title "packet drops: not addressed to us, vector(packetBytes)"
vector 115 Network9.edge[1].wlan[0].mac packetDrop:vector(packetBytes) ETV
attr interpolationmode none
attr source packetDropped
attr title "packet drops, vector(packetBytes)"
vector 116 Network9.edge[1].wlan[0].mac packetDropNotAddressedToUs:vector(packetBytes) ETV
attr interpolationmode none
attr source packetDropReasonIsNotAddressedToUs(packetDropped)
attr title "packet drops: not addressed to us, vector(packetBytes)"
vector 117 Network9.rsu[1].wlan[0].mac.rx nav:vector ETV
attr interpolationmode linear
attr source navChanged
attr title "network allocation vector, vector"
vector 118 Network9.rsu[1].wlan[0].mac.dcf packetDrop:vector(packetBytes) ETV
attr interpolationmode none
attr source packetDropped
attr title "packet drops, vector(packetBytes)"
vector 119 Network9.rsu[1].wlan[0].mac.dcf packetDropNotAddressedToUs:vector(packetBytes) ETV
attr interpolationmode none
attr source packetDropReasonIsNotAddressedToUs(packetDropped)
attr title "packet drops: not addressed to us, vector(packetBytes)"
vector 120 Network9.rsu[1].wlan[0].mac packetDrop:vector(packetBytes) ETV
attr interpolationmode none
attr source packetDropped
attr title "packet drops, vector(packetBytes)"
vector 121 Network9.rsu[1].wlan[0].mac packetDropNotAddressedToUs:vector(packetBytes) ETV
attr interpolationmode none
attr source packetDropReasonIsNotAddressedToUs(packetDropped)
attr title "packet drops: not addressed to us, vector(packetBytes)"
vector 122 Network9.edge[2].wlan[0].mac packetReceivedFromLower:vector(packetBytes) ETV
attr interpolationmode none
attr title "packets received from lower layer, vector(packetBytes)"
vector 123 Network9.edge[2].wlan[0].mac.rx nav:vector ETV
attr interpolationmode linear
attr source navChanged
attr title "network allocation vector, vector"
vector 124 Network9.edge[2].wlan[0].mac.dcf packetDrop:vector(packetBytes) ETV
attr interpolationmode none
attr source packetDropped
attr title "packet drops, vector(packetBytes)"
vector 125 Network9.edge[2].wlan[0].mac.dcf packetDropNotAddressedToUs:vector(packetBytes) ETV
attr interpolationmode none
attr source packetDropReasonIsNotAddressedToUs(packetDropped)
attr title "packet drops: not addressed to us, vector(packetBytes)"
vector 126 Network9.edge[2].wlan[0].mac packetDrop:vector(packetBytes) ETV
attr interpolationmode none
attr source packetDropped
attr title "packet drops, vector(packetBytes)"
vector 127 Network9.edge[2].wlan[0].mac packetDropNotAddressedToUs:vector(packetBytes) ETV
attr interpolationmode none
attr source packetDropReasonIsNotAddressedToUs(packetDropped)
attr title "packet drops: not addressed to us, vector(packetBytes)"
vector 128 Network9.rsu[2].wlan[0].mac packetReceivedFromLower:vector(packetBytes) ETV
attr interpolationmode none
attr title "packets received from lower layer, vector(packetBytes)"
vector 129 Network9.rsu[2].wlan[0].mac.rx nav:vector ETV
attr interpolationmode linear
attr source navChanged
attr title "network allocation vector, vector"
vector 130 Network9.rsu[2].wlan[0].mac.dcf packetDrop:vector(packetBytes) ETV
attr interpolationmode none
attr source packetDropped
attr title "packet drops, vector(packetBytes)"
vector 131 Network9.rsu[2].wlan[0].mac.dcf packetDropNotAddressedToUs:vector(packetBytes) ETV
attr interpolationmode none
attr source packetDropReasonIsNotAddressedToUs(packetDropped)
attr title "packet drops: not addressed to us, vector(packetBytes)"
vector 132 Network9.rsu[2].wlan[0].mac packetDrop:vector(packetBytes) ETV
attr interpolationmode none
attr source packetDropped
attr title "packet drops, vector(packetBytes)"
vector 133 Network9.rsu[2].wlan[0].mac packetDropNotAddressedToUs:vector(packetBytes) ETV
attr interpolationmode none
attr source packetDropReasonIsNotAddressedToUs(packetDropped)
attr title "packet drops: not addressed to us, vector(packetBytes)"
vector 134 Network9.meco[0].wlan[0].mac packetReceivedFromLower:vector(packetBytes) ETV
attr interpolationmode none
attr title "packets received from lower layer, vector(packetBytes)"
vector 135 Network9.meco[0].wlan[0].mac.rx nav:vector ETV
attr interpolationmode linear
attr source navChanged
attr title "network allocation vector, vector"
vector 136 Network9.meco[0].wlan[0].mac.dcf packetDrop:vector(packetBytes) ETV
attr interpolationmode none
attr source packetDropped
attr title "packet drops, vector(packetBytes)"
vector 137 Network9.meco[0].wlan[0].mac.dcf packetDropNotAddressedToUs:vector(packetBytes) ETV
attr interpolationmode none
attr source packetDropReasonIsNotAddressedToUs(packetDropped)
attr title "packet drops: not addressed to us, vector(packetBytes)"
vector 138 Network9.meco[0].wlan[0].mac packetDrop:vector(packetBytes) ETV
attr interpolationmode none
attr source packetDropped
attr title "packet drops, vector(packetBytes)"
vector 139 Network9.meco[0].wlan[0].mac packetDropNotAddressedToUs:vector(packetBytes) ETV
attr interpolationmode none
attr source packetDropReasonIsNotAddressedToUs(packetDropped)
attr title "packet drops: not addressed to us, vector(packetBytes)"
vector 140 Network9.node[0].wlan[0].mac.dcf packetSentToPeerUnicast:vector(packetBytes) ETV
attr interpolationmode none
attr source ieee80211Unicast(packetSentToPeer)
attr title "packets sent: unicast, vector(packetBytes)"
vector 141 Network9.rsu[0].wlan[0].mac.dcf packetReceivedFromPeerUnicast:vector(packetBytes) ETV
attr interpolationmode none
attr source ieee80211Unicast(packetReceivedFromPeer)
attr title "packets received: unicast, vector(packetBytes)"
vector 142 Network9.rsu[0].wlan[0].mac.dcf.channelAccess.inProgressFrames queueingTime:vector ETV
attr interpolationmode none
attr source queueingTime(packetDequeued)
attr title "queueing times, vector"
vector 143 Network9.edge[1].udp packetSent:vector(packetBytes) ETV
attr interpolationmode none
attr source packetSent
attr title "packets sent, vector(packetBytes)"
vector 144 Network9.edge[1].wlan[0].mac packetReceivedFromUpper:vector(packetBytes) ETV
attr interpolationmode none
attr title "packets received from upper layer, vector(packetBytes)"
vector 145 Network9.edge[1].wlan[0].mac.dcf.channelAccess.pendingQueue packetPushed:vector(packetBytes) ETV
attr interpolationmode none
attr title "packet pushed, vector(packetBytes)"
vector 146 Network9.edge[1].wlan[0].mac.dcf.channelAccess.pendingQueue queueLength:vector ETV
attr interpolationmode sample-hold
attr source "count(packetPushed) - count(packetPopped) - count(packetRemoved) - count(packetDropped)"
attr title "queue length, vector"
vector 147 Network9.edge[1].wlan[0].mac.dcf.channelAccess.contention backoffPeriodGenerated:vector ETV
attr interpolationmode none
attr title "backoff periods, vector"
vector 148 Network9.edge[1].wlan[0].mac.dcf.channelAccess.contention backoffActive:vector ETV
attr interpolationmode sample-hold
attr source count(backoffStarted)-count(backoffStopped)
attr title "backoff active, vector"
vector 149 Network9.edge[1].wlan[0].mac.dcf.channelAccess.pendingQueue packetPopped:vector(packetBytes) ETV
attr interpolationmode none
attr title "packet popped, vector(packetBytes)"
vector 150 Network9.edge[1].wlan[0].mac.dcf.channelAccess.pendingQueue queueingTime:vector ETV
attr interpolationmode none
attr source queueingTime(packetPopped)
attr title "queueing times, vector"
attr unit s
vector 151 Network9.edge[1].wlan[0].mac.dcf.channelAccess.inProgressFrames queueLength:vector ETV
attr interpolationmode sample-hold
attr source "count(packetEnqueued) - count(packetDequeued)"
attr title "queue length, vector"
vector 152 Network9.edge[1].wlan[0].mac.dcf datarateSelected:vector ETV
attr interpolationmode none
attr title "datarates selected, vector"
vector 153 Network9.edge[1].wlan[0].mac packetSentToLower:vector(packetBytes) ETV
attr interpolationmode none
attr title "packets sent to lower layer, vector(packetBytes)"
vector 154 Network9.edge[1].wlan[0].mac.dcf frameSequenceActive:vector ETV
attr interpolationmode sample-hold
attr source count(frameSequenceStarted)-count(frameSequenceFinished)
attr title "frame sequence active, vector"
vector 155 Network9.edge[1].wlan[0].radio transmissionState:vector ETV
attr interpolationmode sample-hold
attr source transmissionStateChanged
attr title "Radio transmission state, vector"
vector 156 Network9.edge[1].wlan[0].mac.dcf packetSentToPeer:vector(packetBytes) ETV
attr interpolationmode none
attr title "packets sent, vector(packetBytes)"
vector 157 Network9.edge[1].wlan[0].mac.dcf packetSentToPeerMulticast:vector(packetBytes) ETV
attr interpolationmode none
attr source ieee80211Multicast(packetSentToPeer)
attr title "packets sent: multicast, vector(packetBytes)"
vector 158 Network9.edge[1].wlan[0].mac.dcf packetSentToPeerBroadcast:vector(packetBytes) ETV
attr interpolationmode none
attr source ieee80211Broadcast(packetSentToPeer)
attr title "packets sent: broadcast , vector(packetBytes)"
vector 159 Network9.edge[1].wlan[0].mac.dcf packetSentToPeerWithoutRetry:vector(packetBytes) ETV
attr interpolationmode none
attr source ieee80211NotRetry(packetSentToPeer)
attr title "packets sent: without retry, vector(packetBytes)"
vector 160 Network9.edge[1].wlan[0].mac.dcf.channelAccess.inProgressFrames queueingTime:vector ETV
attr interpolationmode none
attr source queueingTime(packetDequeued)
attr title "queueing times, vector"
vector 161 Network9.edge[2].wlan[0].mac.dcf packetReceivedFromPeer:vector(packetBytes) ETV
attr interpolationmode none
attr title "packets received, vector(packetBytes)"
vector 162 Network9.edge[2].wlan[0].mac.dcf packetReceivedFromPeerMulticast:vector(packetBytes) ETV
attr interpolationmode none
attr source ieee80211Multicast(packetReceivedFromPeer)
attr title "packets received: multicast, vector(packetBytes)"
vector 163 Network9.edge[2].wlan[0].mac.dcf packetReceivedFromPeerBroadcast:vector(packetBytes) ETV
attr interpolationmode none
attr source ieee80211Broadcast(packetReceivedFromPeer)
attr title "packets received: broadcast, vector(packetBytes)"
vector 164 Network9.edge[2].wlan[0].mac.dcf packetReceivedFromPeerWithoutRetry:vector(packetBytes) ETV
attr interpolationmode none
attr source ieee80211NotRetry(packetReceivedFromPeer)
attr title "packets received: without retry, vector(packetBytes)"
vector 165 Network9.edge[2].wlan[0].mac packetSentToUpper:vector(packetBytes) ETV
attr interpolationmode none
attr title "packets sent to upper layer, vector(packetBytes)"
vector 166 Network9.edge[2].udp packetReceived:vector(packetBytes) ETV
attr interpolationmode none
attr source packetReceived
attr title "packets received, vector(packetBytes)"
vector 167 Network9.edge[2].udp passedUpPk:vector(count) ETV
attr interpolationmode none
attr source packetSentToUpper
attr title "packets passed up, vector(count)"
vector 168 Network9.rsu[2].wlan[0].mac.dcf packetReceivedFromPeer:vector(packetBytes) ETV
attr interpolationmode none
attr title "packets received, vector(packetBytes)"
vector 169 Network9.rsu[2].wlan[0].mac.dcf packetReceivedFromPeerMulticast:vector(packetBytes) ETV
attr interpolationmode none
attr source ieee80211Multicast(packetReceivedFromPeer)
attr title "packets received: multicast, vector(packetBytes)"
vector 170 Network9.rsu[2].wlan[0].mac.dcf packetReceivedFromPeerBroadcast:vector(packetBytes) ETV
attr interpolationmode none
attr source ieee80211Broadcast(packetReceivedFromPeer)
attr title "packets received: broadcast, vector(packetBytes)"
vector 171 Network9.rsu[2].wlan[0].mac.dcf packetReceivedFromPeerWithoutRetry:vector(packetBytes) ETV
attr interpolationmode none
attr source ieee80211NotRetry(packetReceivedFromPeer)
attr title "packets received: without retry, vector(packetBytes)"
vector 172 Network9.rsu[2].wlan[0].mac packetSentToUpper:vector(packetBytes) ETV
attr interpolationmode none
attr title "packets sent to upper layer, vector(packetBytes)"
vector 173 Network9.rsu[2].udp packetReceived:vector(packetBytes) ETV
attr interpolationmode none
attr source packetReceived
attr title "packets received, vector(packetBytes)"
vector 174 Network9.rsu[2].udp passedUpPk:vector(count) ETV
attr interpolationmode none
attr source packetSentToUpper
attr title "packets passed up, vector(count)"
vector 175 Network9.meco[0].wlan[0].mac.dcf packetReceivedFromPeer:vector(packetBytes) ETV
attr interpolationmode none
attr title "packets received, vector(packetBytes)"
vector 176 Network9.meco[0].wlan[0].mac.dcf packetReceivedFromPeerMulticast:vector(packetBytes) ETV
attr interpolationmode none
attr source ieee80211Multicast(packetReceivedFromPeer)
attr title "packets received: multicast, vector(packetBytes)"
vector 177 Network9.meco[0].wlan[0].mac.dcf packetReceivedFromPeerBroadcast:vector(packetBytes) ETV
attr interpolationmode none
attr source ieee80211Broadcast(packetReceivedFromPeer)
attr title "packets received: broadcast, vector(packetBytes)"
vector 178 Network9.meco[0].wlan[0].mac.dcf packetReceivedFromPeerWithoutRetry:vector(packetBytes) ETV
attr interpolationmode none
attr source ieee80211NotRetry(packetReceivedFromPeer)
attr title "packets received: without retry, vector(packetBytes)"
vector 179 Network9.meco[0].wlan[0].mac packetSentToUpper:vector(packetBytes) ETV
attr interpolationmode none
attr title "packets sent to upper layer, vector(packetBytes)"
vector 180 Network9.meco[0].udp packetReceived:vector(packetBytes) ETV
attr interpolationmode none
attr source packetReceived
attr title "packets received, vector(packetBytes)"
vector 181 Network9.meco[0].udp passedUpPk:vector(count) ETV
attr interpolationmode none
attr source packetSentToUpper
attr title "packets passed up, vector(count)"
vector 182 Network9.node[0].wlan[0].mac.dcf packetReceivedFromPeerMulticast:vector(packetBytes) ETV
attr interpolationmode none
attr source ieee80211Multicast(packetReceivedFromPeer)
attr title "packets received: multicast, vector(packetBytes)"
vector 183 Network9.node[0].wlan[0].mac.dcf packetReceivedFromPeerBroadcast:vector(packetBytes) ETV
attr interpolationmode none
attr source ieee80211Broadcast(packetReceivedFromPeer)
attr title "packets received: broadcast, vector(packetBytes)"
vector 184 Network9.node[0].wlan[0].mac.rx nav:vector ETV
attr interpolationmode linear
attr source navChanged
attr title "network allocation vector, vector"
vector 185 Network9.rsu[0].app[0] packetReceived:vector(packetBytes) ETV
attr interpolationmode none
attr source packetReceived
attr title "packets received, vector(packetBytes)"
vector 186 Network9.rsu[0].app[0] throughput:vector ETV
attr source throughput(packetReceived)
attr title "throughput, vector"
attr unit bps
vector 187 Network9.rsu[0].app[0] packetSent:vector(packetBytes) ETV
attr interpolationmode none
attr source packetSent
attr title "packets sent, vector(packetBytes)"
vector 188 Network9.node[0].app[0] packetReceived:vector(packetBytes) ETV
attr interpolationmode none
attr source packetReceived
attr title "packets received, vector(packetBytes)"
vector 189 Network9.node[0].app[0] throughput:vector ETV
attr source throughput(packetReceived)
attr title "throughput, vector"
attr unit bps
vector 190 Network9.edge[0].udp packetSent:vector(packetBytes) ETV
attr interpolationmode none
attr source packetSent
attr title "packets sent, vector(packetBytes)"
vector 191 Network9.edge[0].wlan[0].mac packetReceivedFromUpper:vector(packetBytes) ETV
attr interpolationmode none
attr title "packets received from upper layer, vector(packetBytes)"
vector 192 Network9.edge[0].wlan[0].mac.dcf.channelAccess.pendingQueue packetPushed:vector(packetBytes) ETV
attr interpolationmode none
attr title "packet pushed, vector(packetBytes)"
vector 193 Network9.edge[0].wlan[0].mac.dcf.channelAccess.pendingQueue queueLength:vector ETV
attr interpolationmode sample-hold
attr source "count(packetPushed) - count(packetPopped) - count(packetRemoved) - count(packetDropped)"
attr title "queue length, vector"
vector 194 Network9.edge[0].wlan[0].mac.dcf.channelAccess.contention backoffPeriodGenerated:vector ETV
attr interpolationmode none
attr title "backoff periods, vector"
vector 195 Network9.edge[0].wlan[0].mac.dcf.channelAccess.contention backoffActive:vector ETV
attr interpolationmode sample-hold
attr source count(backoffStarted)-count(backoffStopped)
attr title "backoff active, vector"
vector 196 Network9.edge[0].wlan[0].mac.dcf.channelAccess.pendingQueue packetPopped:vector(packetBytes) ETV
attr interpolationmode none
attr title "packet popped, vector(packetBytes)"
vector 197 Network9.edge[0].wlan[0].mac.dcf.channelAccess.pendingQueue queueingTime:vector ETV
attr interpolationmode none
attr source queueingTime(packetPopped)
attr title "queueing times, vector"
attr unit s
vector 198 Network9.edge[0].wlan[0].mac.dcf.channelAccess.inProgressFrames queueLength:vector ETV
attr interpolationmode sample-hold
attr source "count(packetEnqueued) - count(packetDequeued)"
attr title "queue length, vector"
vector 199 Network9.edge[0].wlan[0].mac.dcf datarateSelected:vector ETV
attr interpolationmode none
attr title "datarates selected, vector"
vector 200 Network9.edge[0].wlan[0].mac packetSentToLower:vector(packetBytes) ETV
attr interpolationmode none
attr title "packets sent to lower layer, vector(packetBytes)"
vector 201 Network9.edge[0].wlan[0].mac.dcf frameSequenceActive:vector ETV
attr interpolationmode sample-hold
attr source count(frameSequenceStarted)-count(frameSequenceFinished)
attr title "frame sequence active, vector"
vector 202 Network9.edge[0].wlan[0].radio transmissionState:vector ETV
attr interpolationmode sample-hold
attr source transmissionStateChanged
attr title "Radio transmission state, vector"
vector 203 Network9.edge[0].wlan[0].mac.dcf packetSentToPeer:vector(packetBytes) ETV
attr interpolationmode none
attr title "packets sent, vector(packetBytes)"
vector 204 Network9.edge[0].wlan[0].mac.dcf packetSentToPeerMulticast:vector(packetBytes) ETV
attr interpolationmode none
attr source ieee80211Multicast(packetSentToPeer)
attr title "packets sent: multicast, vector(packetBytes)"
vector 205 Network9.edge[0].wlan[0].mac.dcf packetSentToPeerBroadcast:vector(packetBytes) ETV
attr interpolationmode none
attr source ieee80211Broadcast(packetSentToPeer)
attr title "packets sent: broadcast , vector(packetBytes)"
vector 206 Network9.edge[0].wlan[0].mac.dcf packetSentToPeerWithoutRetry:vector(packetBytes) ETV
attr interpolationmode none
attr source ieee80211NotRetry(packetSentToPeer)
attr title "packets sent: without retry, vector(packetBytes)"
vector 207 Network9.edge[0].wlan[0].mac.dcf.channelAccess.inProgressFrames queueingTime:vector ETV
attr interpolationmode none
attr source queueingTime(packetDequeued)
attr title "queueing times, vector"
vector 208 Network9.rsu[1].udp packetSent:vector(packetBytes) ETV
attr interpolationmode none
attr source packetSent
attr title "packets sent, vector(packetBytes)"
vector 209 Network9.rsu[1].wlan[0].mac packetReceivedFromUpper:vector(packetBytes) ETV
attr interpolationmode none
attr title "packets received from upper layer, vector(packetBytes)"
vector 210 Network9.rsu[1].wlan[0].mac.dcf.channelAccess.pendingQueue packetPushed:vector(packetBytes) ETV
attr interpolationmode none
attr title "packet pushed, vector(packetBytes)"
vector 211 Network9.rsu[1].wlan[0].mac.dcf.channelAccess.pendingQueue queueLength:vector ETV
attr interpolationmode sample-hold
attr source "count(packetPushed) - count(packetPopped) - count(packetRemoved) - count(packetDropped)"
attr title "queue length, vector"
vector 212 Network9.rsu[1].wlan[0].mac.dcf.channelAccess.contention backoffPeriodGenerated:vector ETV
attr interpolationmode none
attr title "backoff periods, vector"
vector 213 Network9.rsu[1].wlan[0].mac.dcf.channelAccess.contention backoffActive:vector ETV
attr interpolationmode sample-hold
attr source count(backoffStarted)-count(backoffStopped)
attr title "backoff active, vector"
vector 214 Network9.rsu[1].wlan[0].mac.dcf.channelAccess.pendingQueue packetPopped:vector(packetBytes) ETV
attr interpolationmode none
attr title "packet popped, vector(packetBytes)"
vector 215 Network9.rsu[1].wlan[0].mac.dcf.channelAccess.pendingQueue queueingTime:vector ETV
attr interpolationmode none
attr source queueingTime(packetPopped)
attr title "queueing times, vector"
attr unit s
vector 216 Network9.rsu[1].wlan[0].mac.dcf.channelAccess.inProgressFrames queueLength:vector ETV
attr interpolationmode sample-hold
attr source "count(packetEnqueued) - count(packetDequeued)"
attr title "queue length, vector"
vector 217 Network9.rsu[1].wlan[0].mac.dcf datarateSelected:vector ETV
attr interpolationmode none
attr title "datarates selected, vector"
vector 218 Network9.rsu[1].wlan[0].mac packetSentToLower:vector(packetBytes) ETV
attr interpolationmode none
attr title "packets sent to lower layer, vector(packetBytes)"
vector 219 Network9.rsu[1].wlan[0].mac.dcf frameSequenceActive:vector ETV
attr interpolationmode sample-hold
attr source count(frameSequenceStarted)-count(frameSequenceFinished)
attr title "frame sequence active, vector"
vector 220 Network9.rsu[1].wlan[0].radio transmissionState:vector ETV
attr interpolationmode sample-hold
attr source transmissionStateChanged
attr title "Radio transmission state, vector"
vector 221 Network9.rsu[1].wlan[0].mac.dcf packetSentToPeer:vector(packetBytes) ETV
attr interpolationmode none
attr title "packets sent, vector(packetBytes)"
vector 222 Network9.rsu[1].wlan[0].mac.dcf packetSentToPeerMulticast:vector(packetBytes) ETV
attr interpolationmode none
attr source ieee80211Multicast(packetSentToPeer)
attr title "packets sent: multicast, vector(packetBytes)"
vector 223 Network9.rsu[1].wlan[0].mac.dcf packetSentToPeerBroadcast:vector(packetBytes) ETV
attr interpolationmode none
attr source ieee80211Broadcast(packetSentToPeer)
attr title "packets sent: broadcast , vector(packetBytes)"
vector 224 Network9.rsu[1].wlan[0].mac.dcf packetSentToPeerWithoutRetry:vector(packetBytes) ETV
attr interpolationmode none
attr source ieee80211NotRetry(packetSentToPeer)
attr title "packets sent: without retry, vector(packetBytes)"
vector 225 Network9.rsu[1].wlan[0].mac.dcf.channelAccess.inProgressFrames queueingTime:vector ETV
attr interpolationmode none
attr source queueingTime(packetDequeued)
attr title "queueing times, vector"
vector 226 Network9.rsu[1].wlan[0].mac.dcf packetSentToPeerUnicast:vector(packetBytes) ETV
attr interpolationmode none
attr source ieee80211Unicast(packetSentToPeer)
attr title "packets sent: unicast, vector(packetBytes)"
vector 227 Network9.rsu[0].wlan[0].mac.dcf packetDrop:vector(packetBytes) ETV
attr interpolationmode none
attr source packetDropped
attr title "packet drops, vector(packetBytes)"
vector 228 Network9.rsu[0].wlan[0].mac.dcf packetDropNotAddressedToUs:vector(packetBytes) ETV
attr interpolationmode none
attr source packetDropReasonIsNotAddressedToUs(packetDropped)
attr title "packet drops: not addressed to us, vector(packetBytes)"
vector 229 Network9.rsu[0].wlan[0].mac packetDrop:vector(packetBytes) ETV
attr interpolationmode none
attr source packetDropped
attr title "packet drops, vector(packetBytes)"
vector 230 Network9.rsu[0].wlan[0].mac packetDropNotAddressedToUs:vector(packetBytes) ETV
attr interpolationmode none
attr source packetDropReasonIsNotAddressedToUs(packetDropped)
attr title "packet drops: not addressed to us, vector(packetBytes)"
vector 231 Network9.rsu[1].wlan[0].mac.dcf packetReceivedFromPeerUnicast:vector(packetBytes) ETV
attr interpolationmode none
attr source ieee80211Unicast(packetReceivedFromPeer)
attr title "packets received: unicast, vector(packetBytes)"
vector 232 Network9.rsu[1].app[0] packetReceived:vector(packetBytes) ETV
attr interpolationmode none
attr source packetReceived
attr title "packets received, vector(packetBytes)"
vector 233 Network9.rsu[1].app[0] throughput:vector ETV
attr source throughput(packetReceived)
attr title "throughput, vector"
attr unit bps
vector 234 Network9.rsu[1].app[0] packetSent:vector(packetBytes) ETV
attr interpolationmode none
attr source packetSent
attr title "packets sent, vector(packetBytes)"
vector 235 Network9.rsu[0].wlan[0].mac.dcf packetSentToPeerMulticast:vector(packetBytes) ETV
attr interpolationmode none
attr source ieee80211Multicast(packetSentToPeer)
attr title "packets sent: multicast, vector(packetBytes)"
vector 236 Network9.rsu[0].wlan[0].mac.dcf packetSentToPeerBroadcast:vector(packetBytes) ETV
attr interpolationmode none
attr source ieee80211Broadcast(packetSentToPeer)
attr title "packets sent: broadcast , vector(packetBytes)"
vector 237 Network9.node[0].wlan[0].mac packetDrop:vector(packetBytes) ETV
attr interpolationmode none
attr source packetDropped
attr title "packet drops, vector(packetBytes)"
vector 238 Network9.node[0].wlan[0].mac packetDropIncorrectlyReceived:vector(packetBytes) ETV
attr interpolationmode none
attr source packetDropReasonIsIncorrectlyReceived(packetDropped)
attr title "packet drops: incorrectly received, vector(packetBytes)"
vector 239 Network9.meco[0].wlan[0].mac packetDropIncorrectlyReceived:vector(packetBytes) ETV
attr interpolationmode none
attr source packetDropReasonIsIncorrectlyReceived(packetDropped)
attr title "packet drops: incorrectly received, vector(packetBytes)"
vector 240 Network9.edge[2].wlan[0].mac packetDropIncorrectlyReceived:vector(packetBytes) ETV
attr interpolationmode none
attr source packetDropReasonIsIncorrectlyReceived(packetDropped)
attr title "packet drops: incorrectly received, vector(packetBytes)"
vector 241 Network9.rsu[2].wlan[0].mac packetDropIncorrectlyReceived:vector(packetBytes) ETV
attr interpolationmode none
attr source packetDropReasonIsIncorrectlyReceived(packetDropped)
attr title "packet drops: incorrectly received, vector(packetBytes)"
vector 242 Network9.rsu[1].wlan[0].mac.dcf packetSentToPeerWithRetry:vector(packetBytes) ETV
attr interpolationmode none
attr source ieee80211Retry(packetSentToPeer)
attr title "packets sent: with retry, vector(packetBytes)"
vector 243 Network9.node[0].wlan[0].mac.dcf packetReceivedFromPeerWithRetry:vector(packetBytes) ETV
attr interpolationmode none
attr source ieee80211Retry(packetReceivedFromPeer)
attr title "packets received: with retry, vector(packetBytes)"
vector 244 Network9.rsu[2].udp packetSent:vector(packetBytes) ETV
attr interpolationmode none
attr source packetSent
attr title "packets sent, vector(packetBytes)"
vector 245 Network9.rsu[2].wlan[0].mac packetReceivedFromUpper:vector(packetBytes) ETV
attr interpolationmode none
attr title "packets received from upper layer, vector(packetBytes)"
vector 246 Network9.rsu[2].wlan[0].mac.dcf.channelAccess.pendingQueue packetPushed:vector(packetBytes) ETV
attr interpolationmode none
attr title "packet pushed, vector(packetBytes)"
vector 247 Network9.rsu[2].wlan[0].mac.dcf.channelAccess.pendingQueue queueLength:vector ETV
attr interpolationmode sample-hold
attr source "count(packetPushed) - count(packetPopped) - count(packetRemoved) - count(packetDropped)"
attr title "queue length, vector"
vector 248 Network9.rsu[2].wlan[0].mac.dcf.channelAccess.contention backoffPeriodGenerated:vector ETV
attr interpolationmode none
attr title "backoff periods, vector"
vector 249 Network9.rsu[2].wlan[0].mac.dcf.channelAccess.contention backoffActive:vector ETV
attr interpolationmode sample-hold
attr source count(backoffStarted)-count(backoffStopped)
attr title "backoff active, vector"
vector 250 Network9.rsu[2].wlan[0].mac.dcf.channelAccess.pendingQueue packetPopped:vector(packetBytes) ETV
attr interpolationmode none
attr title "packet popped, vector(packetBytes)"
vector 251 Network9.rsu[2].wlan[0].mac.dcf.channelAccess.pendingQueue queueingTime:vector ETV
attr interpolationmode none
attr source queueingTime(packetPopped)
attr title "queueing times, vector"
attr unit s
vector 252 Network9.rsu[2].wlan[0].mac.dcf.channelAccess.inProgressFrames queueLength:vector ETV
attr interpolationmode sample-hold
attr source "count(packetEnqueued) - count(packetDequeued)"
attr title "queue length, vector"
vector 253 Network9.rsu[2].wlan[0].mac.dcf datarateSelected:vector ETV
attr interpolationmode none
attr title "datarates selected, vector"
vector 254 Network9.rsu[2].wlan[0].mac packetSentToLower:vector(packetBytes) ETV
attr interpolationmode none
attr title "packets sent to lower layer, vector(packetBytes)"
vector 255 Network9.rsu[2].wlan[0].mac.dcf frameSequenceActive:vector ETV
attr interpolationmode sample-hold
attr source count(frameSequenceStarted)-count(frameSequenceFinished)
attr title "frame sequence active, vector"
vector 256 Network9.rsu[2].wlan[0].radio transmissionState:vector ETV
attr interpolationmode sample-hold
attr source transmissionStateChanged
attr title "Radio transmission state, vector"
vector 257 Network9.rsu[2].wlan[0].mac.dcf packetSentToPeer:vector(packetBytes) ETV
attr interpolationmode none
attr title "packets sent, vector(packetBytes)"
vector 258 Network9.rsu[2].wlan[0].mac.dcf packetSentToPeerUnicast:vector(packetBytes) ETV
attr interpolationmode none
attr source ieee80211Unicast(packetSentToPeer)
attr title "packets sent: unicast, vector(packetBytes)"
vector 259 Network9.rsu[2].wlan[0].mac.dcf packetSentToPeerWithoutRetry:vector(packetBytes) ETV
attr interpolationmode none
attr source ieee80211NotRetry(packetSentToPeer)
attr title "packets sent: without retry, vector(packetBytes)"
vector 260 Network9.edge[0].wlan[0].mac.dcf packetReceivedFromPeerUnicast:vector(packetBytes) ETV
attr interpolationmode none
attr source ieee80211Unicast(packetReceivedFromPeer)
attr title "packets received: unicast, vector(packetBytes)"
vector 261 Network9.edge[0].wlan[0].mac.dcf packetSentToPeerUnicast:vector(packetBytes) ETV
attr interpolationmode none
attr source ieee80211Unicast(packetSentToPeer)
attr title "packets sent: unicast, vector(packetBytes)"
vector 262 Network9.node[0].wlan[0].mac.dcf packetDrop:vector(packetBytes) ETV
attr interpolationmode none
attr source packetDropped
attr title "packet drops, vector(packetBytes)"
vector 263 Network9.node[0].wlan[0].mac.dcf packetDropNotAddressedToUs:vector(packetBytes) ETV
attr interpolationmode none
attr source packetDropReasonIsNotAddressedToUs(packetDropped)
attr title "packet drops: not addressed to us, vector(packetBytes)"
vector 264 Network9.node[0].wlan[0].mac packetDropNotAddressedToUs:vector(packetBytes) ETV
attr interpolationmode none
attr source packetDropReasonIsNotAddressedToUs(packetDropped)
attr title "packet drops: not addressed to us, vector(packetBytes)"
vector 265 Network9.rsu[2].wlan[0].mac.dcf packetReceivedFromPeerUnicast:vector(packetBytes) ETV
attr interpolationmode none
attr source ieee80211Unicast(packetReceivedFromPeer)
attr title "packets received: unicast, vector(packetBytes)"
vector 266 Network9.rsu[2].wlan[0].mac.dcf.channelAccess.inProgressFrames queueingTime:vector ETV
attr interpolationmode none
attr source queueingTime(packetDequeued)
attr title "queueing times, vector"
vector 267 Network9.meco[0].udp packetSent:vector(packetBytes) ETV
attr interpolationmode none
attr source packetSent
attr title "packets sent, vector(packetBytes)"
vector 268 Network9.meco[0].wlan[0].mac packetReceivedFromUpper:vector(packetBytes) ETV
attr interpolationmode none
attr title "packets received from upper layer, vector(packetBytes)"
vector 269 Network9.meco[0].wlan[0].mac.dcf.channelAccess.pendingQueue packetPushed:vector(packetBytes) ETV
attr interpolationmode none
attr title "packet pushed, vector(packetBytes)"
vector 270 Network9.meco[0].wlan[0].mac.dcf.channelAccess.pendingQueue queueLength:vector ETV
attr interpolationmode sample-hold
attr source "count(packetPushed) - count(packetPopped) - count(packetRemoved) - count(packetDropped)"
attr title "queue length, vector"
vector 271 Network9.meco[0].wlan[0].mac.dcf.channelAccess.contention backoffPeriodGenerated:vector ETV
attr interpolationmode none
attr title "backoff periods, vector"
vector 272 Network9.meco[0].wlan[0].mac.dcf.channelAccess.contention backoffActive:vector ETV
attr interpolationmode sample-hold
attr source count(backoffStarted)-count(backoffStopped)
attr title "backoff active, vector"
vector 273 Network9.meco[0].wlan[0].mac.dcf.channelAccess.pendingQueue packetPopped:vector(packetBytes) ETV
attr interpolationmode none
attr title "packet popped, vector(packetBytes)"
vector 274 Network9.meco[0].wlan[0].mac.dcf.channelAccess.pendingQueue queueingTime:vector ETV
attr interpolationmode none
attr source queueingTime(packetPopped)
attr title "queueing times, vector"
attr unit s
vector 275 Network9.meco[0].wlan[0].mac.dcf.channelAccess.inProgressFrames queueLength:vector ETV
attr interpolationmode sample-hold
attr source "count(packetEnqueued) - count(packetDequeued)"
attr title "queue length, vector"
vector 276 Network9.meco[0].wlan[0].mac.dcf datarateSelected:vector ETV
attr interpolationmode none
attr title "datarates selected, vector"
vector 277 Network9.meco[0].wlan[0].mac packetSentToLower:vector(packetBytes) ETV
attr interpolationmode none
attr title "packets sent to lower layer, vector(packetBytes)"
vector 278 Network9.meco[0].wlan[0].mac.dcf frameSequenceActive:vector ETV
attr interpolationmode sample-hold
attr source count(frameSequenceStarted)-count(frameSequenceFinished)
attr title "frame sequence active, vector"
vector 279 Network9.meco[0].wlan[0].radio transmissionState:vector ETV
attr interpolationmode sample-hold
attr source transmissionStateChanged
attr title "Radio transmission state, vector"
vector 280 Network9.meco[0].wlan[0].mac.dcf packetSentToPeer:vector(packetBytes) ETV
attr interpolationmode none
attr title "packets sent, vector(packetBytes)"
vector 281 Network9.meco[0].wlan[0].mac.dcf packetSentToPeerUnicast:vector(packetBytes) ETV
attr interpolationmode none
attr source ieee80211Unicast(packetSentToPeer)
attr title "packets sent: unicast, vector(packetBytes)"
vector 282 Network9.meco[0].wlan[0].mac.dcf packetSentToPeerWithoutRetry:vector(packetBytes) ETV
attr interpolationmode none
attr source ieee80211NotRetry(packetSentToPeer)
attr title "packets sent: without retry, vector(packetBytes)"
vector 283 Network9.meco[0].wlan[0].mac.dcf packetReceivedFromPeerUnicast:vector(packetBytes) ETV
attr interpolationmode none
attr source ieee80211Unicast(packetReceivedFromPeer)
attr title "packets received: unicast, vector(packetBytes)"
vector 284 Network9.meco[0].wlan[0].mac.dcf.channelAccess.inProgressFrames queueingTime:vector ETV
attr interpolationmode none
attr source queueingTime(packetDequeued)
attr title "queueing times, vector"
vector 285 Network9.meco[0].app[0] packetReceived:vector(packetBytes) ETV
attr interpolationmode none
attr source packetReceived
attr title "packets received, vector(packetBytes)"
vector 286 Network9.meco[0].app[0] throughput:vector ETV
attr source throughput(packetReceived)
attr title "throughput, vector"
attr unit bps
vector 287 Network9.meco[0].app[0] packetSent:vector(packetBytes) ETV
attr interpolationmode none
attr source packetSent
attr title "packets sent, vector(packetBytes)"
vector 288 Network9.edge[0].app[0] packetReceived:vector(packetBytes) ETV
attr interpolationmode none
attr source packetReceived
attr title "packets received, vector(packetBytes)"
vector 289 Network9.edge[0].app[0] throughput:vector ETV
attr source throughput(packetReceived)
attr title "throughput, vector"
attr unit bps
vector 290 Network9.edge[0].app[0] packetSent:vector(packetBytes) ETV
attr interpolationmode none
attr source packetSent
attr title "packets sent, vector(packetBytes)"
vector 291 Network9.edge[2].udp packetSent:vector(packetBytes) ETV
attr interpolationmode none
attr source packetSent
attr title "packets sent, vector(packetBytes)"
vector 292 Network9.edge[2].wlan[0].mac packetReceivedFromUpper:vector(packetBytes) ETV
attr interpolationmode none
attr title "packets received from upper layer, vector(packetBytes)"
vector 293 Network9.edge[2].wlan[0].mac.dcf.channelAccess.pendingQueue packetPushed:vector(packetBytes) ETV
attr interpolationmode none
attr title "packet pushed, vector(packetBytes)"
vector 294 Network9.edge[2].wlan[0].mac.dcf.channelAccess.pendingQueue queueLength:vector ETV
attr interpolationmode sample-hold
attr source "count(packetPushed) - count(packetPopped) - count(packetRemoved) - count(packetDropped)"
attr title "queue length, vector"
vector 295 Network9.edge[2].wlan[0].mac.dcf.channelAccess.contention backoffPeriodGenerated:vector ETV
attr interpolationmode none
attr title "backoff periods, vector"
vector 296 Network9.edge[2].wlan[0].mac.dcf.channelAccess.contention backoffActive:vector ETV
attr interpolationmode sample-hold
attr source count(backoffStarted)-count(backoffStopped)
attr title "backoff active, vector"
vector 297 Network9.edge[2].wlan[0].mac.dcf.channelAccess.pendingQueue packetPopped:vector(packetBytes) ETV
attr interpolationmode none
attr title "packet popped, vector(packetBytes)"
vector 298 Network9.edge[2].wlan[0].mac.dcf.channelAccess.pendingQueue queueingTime:vector ETV
attr interpolationmode none
attr source queueingTime(packetPopped)
attr title "queueing times, vector"
attr unit s
vector 299 Network9.edge[2].wlan[0].mac.dcf.channelAccess.inProgressFrames queueLength:vector ETV
attr interpolationmode sample-hold
attr source "count(packetEnqueued) - count(packetDequeued)"
attr title "queue length, vector"
vector 300 Network9.edge[2].wlan[0].mac.dcf datarateSelected:vector ETV
attr interpolationmode none
attr title "datarates selected, vector"
vector 301 Network9.edge[2].wlan[0].mac packetSentToLower:vector(packetBytes) ETV
attr interpolationmode none
attr title "packets sent to lower layer, vector(packetBytes)"
vector 302 Network9.edge[2].wlan[0].mac.dcf frameSequenceActive:vector ETV
attr interpolationmode sample-hold
attr source count(frameSequenceStarted)-count(frameSequenceFinished)
attr title "frame sequence active, vector"
vector 303 Network9.edge[2].wlan[0].radio transmissionState:vector ETV
attr interpolationmode sample-hold
attr source transmissionStateChanged
attr title "Radio transmission state, vector"
vector 304 Network9.edge[2].wlan[0].mac.dcf packetSentToPeer:vector(packetBytes) ETV
attr interpolationmode none
attr title "packets sent, vector(packetBytes)"
vector 305 Network9.edge[2].wlan[0].mac.dcf packetSentToPeerMulticast:vector(packetBytes) ETV
attr interpolationmode none
attr source ieee80211Multicast(packetSentToPeer)
attr title "packets sent: multicast, vector(packetBytes)"
vector 306 Network9.edge[2].wlan[0].mac.dcf packetSentToPeerBroadcast:vector(packetBytes) ETV
attr interpolationmode none
attr source ieee80211Broadcast(packetSentToPeer)
attr title "packets sent: broadcast , vector(packetBytes)"
vector 307 Network9.edge[2].wlan[0].mac.dcf packetSentToPeerWithoutRetry:vector(packetBytes) ETV
attr interpolationmode none
attr source ieee80211NotRetry(packetSentToPeer)
attr title "packets sent: without retry, vector(packetBytes)"
vector 308 Network9.edge[2].wlan[0].mac.dcf.channelAccess.inProgressFrames queueingTime:vector ETV
attr interpolationmode none
attr source queueingTime(packetDequeued)
attr title "queueing times, vector"
vector 309 Network9.edge[1].wlan[0].mac packetDropIncorrectlyReceived:vector(packetBytes) ETV
attr interpolationmode none
attr source packetDropReasonIsIncorrectlyReceived(packetDropped)
attr title "packet drops: incorrectly received, vector(packetBytes)"
vector 310 Network9.rsu[1].wlan[0].mac packetDropIncorrectlyReceived:vector(packetBytes) ETV
attr interpolationmode none
attr source packetDropReasonIsIncorrectlyReceived(packetDropped)
attr title "packet drops: incorrectly received, vector(packetBytes)"
vector 311 Network9.meco[0].wlan[0].mac.dcf packetSentToPeerMulticast:vector(packetBytes) ETV
attr interpolationmode none
attr source ieee80211Multicast(packetSentToPeer)
attr title "packets sent: multicast, vector(packetBytes)"
vector 312 Network9.meco[0].wlan[0].mac.dcf packetSentToPeerBroadcast:vector(packetBytes) ETV
attr interpolationmode none
attr source ieee80211Broadcast(packetSentToPeer)
attr title "packets sent: broadcast , vector(packetBytes)"
vector 313 Network9.edge[0].wlan[0].mac.dcf packetSentToPeerWithRetry:vector(packetBytes) ETV
attr interpolationmode none
attr source ieee80211Retry(packetSentToPeer)
attr title "packets sent: with retry, vector(packetBytes)"
vector 314 Network9.rsu[0].wlan[0].mac packetDropIncorrectlyReceived:vector(packetBytes) ETV
attr interpolationmode none
attr source packetDropReasonIsIncorrectlyReceived(packetDropped)
attr title "packet drops: incorrectly received, vector(packetBytes)"
vector 315 Network9.edge[0].wlan[0].mac packetDropIncorrectlyReceived:vector(packetBytes) ETV
attr interpolationmode none
attr source packetDropReasonIsIncorrectlyReceived(packetDropped)
attr title "packet drops: incorrectly received, vector(packetBytes)"
vector 316 Network9.rsu[2].app[0] packetReceived:vector(packetBytes) ETV
attr interpolationmode none
attr source packetReceived
attr title "packets received, vector(packetBytes)"
vector 317 Network9.rsu[2].app[0] throughput:vector ETV
attr source throughput(packetReceived)
attr title "throughput, vector"
attr unit bps
vector 318 Network9.rsu[2].app[0] packetSent:vector(packetBytes) ETV
attr interpolationmode none
attr source packetSent
attr title "packets sent, vector(packetBytes)"
vector 319 Network9.edge[0].wlan[0].mac.dcf packetReceivedFromPeerWithRetry:vector(packetBytes) ETV
attr interpolationmode none
attr source ieee80211Retry(packetReceivedFromPeer)
attr title "packets received: with retry, vector(packetBytes)"
vector 320 Network9.rsu[2].wlan[0].mac.dcf packetSentToPeerMulticast:vector(packetBytes) ETV
attr interpolationmode none
attr source ieee80211Multicast(packetSentToPeer)
attr title "packets sent: multicast, vector(packetBytes)"
vector 321 Network9.rsu[2].wlan[0].mac.dcf packetSentToPeerBroadcast:vector(packetBytes) ETV
attr interpolationmode none
attr source ieee80211Broadcast(packetSentToPeer)
attr title "packets sent: broadcast , vector(packetBytes)"
vector 322 Network9.edge[2].wlan[0].mac.dcf packetReceivedFromPeerUnicast:vector(packetBytes) ETV
attr interpolationmode none
attr source ieee80211Unicast(packetReceivedFromPeer)
attr title "packets received: unicast, vector(packetBytes)"
vector 323 Network9.edge[2].app[0] packetReceived:vector(packetBytes) ETV
attr interpolationmode none
attr source packetReceived
attr title "packets received, vector(packetBytes)"
vector 324 Network9.edge[2].app[0] throughput:vector ETV
attr source throughput(packetReceived)
attr title "throughput, vector"
attr unit bps
vector 325 Network9.edge[2].app[0] packetSent:vector(packetBytes) ETV
attr interpolationmode none
attr source packetSent
attr title "packets sent, vector(packetBytes)"
vector 326 Network9.edge[2].wlan[0].mac.dcf packetSentToPeerUnicast:vector(packetBytes) ETV
attr interpolationmode none
attr source ieee80211Unicast(packetSentToPeer)
attr title "packets sent: unicast, vector(packetBytes)"
vector 327 Network9.rsu[0].wlan[0].mac.dcf packetSentToPeerWithRetry:vector(packetBytes) ETV
attr interpolationmode none
attr source ieee80211Retry(packetSentToPeer)
attr title "packets sent: with retry, vector(packetBytes)"
vector 328 Network9.meco[0].wlan[0].mac.dcf packetSentToPeerWithRetry:vector(packetBytes) ETV
attr interpolationmode none
attr source ieee80211Retry(packetSentToPeer)
attr title "packets sent: with retry, vector(packetBytes)"
vector 329 Network9.node[0].wlan[0].mac.dcf packetSentToPeerWithRetry:vector(packetBytes) ETV
attr interpolationmode none
attr source ieee80211Retry(packetSentToPeer)
attr title "packets sent: with retry, vector(packetBytes)"
vector 330 Network9.rsu[2].wlan[0].mac.dcf packetSentToPeerWithRetry:vector(packetBytes) ETV
attr interpolationmode none
attr source ieee80211Retry(packetSentToPeer)
attr title "packets sent: with retry, vector(packetBytes)"
vector 331 Network9.rsu[0].wlan[0].mac.dcf packetReceivedFromPeerWithRetry:vector(packetBytes) ETV
attr interpolationmode none
attr source ieee80211Retry(packetReceivedFromPeer)
attr title "packets received: with retry, vector(packetBytes)"
vector 332 Network9.rsu[1].wlan[0].mac.dcf packetReceivedFromPeerWithRetry:vector(packetBytes) ETV
attr interpolationmode none
attr source ieee80211Retry(packetReceivedFromPeer)
attr title "packets received: with retry, vector(packetBytes)"
vector 333 Network9.edge[2].wlan[0].mac.dcf packetReceivedFromPeerWithRetry:vector(packetBytes) ETV
attr interpolationmode none
attr source ieee80211Retry(packetReceivedFromPeer)
attr title "packets received: with retry, vector(packetBytes)"
vector 334 Network9.meco[0].wlan[0].mac.dcf packetReceivedFromPeerWithRetry:vector(packetBytes) ETV
attr interpolationmode none
attr source ieee80211Retry(packetReceivedFromPeer)
attr title "packets received: with retry, vector(packetBytes)"
vector 335 Network9.meco[0].wlan[0].mac.dcf.recipientMacDataService packetDropDuplicateDetected:vector(packetBytes) ETV
attr interpolationmode none
attr source packetDropReasonIsDuplicateDetected(packetDropped)
attr title "packet drops: duplicate detected, vector(packetBytes)"
vector 336 Network9.meco[0].wlan[0].mac packetDropDuplicateDetected:vector(packetBytes) ETV
attr interpolationmode none
attr source packetDropReasonIsDuplicateDetected(packetDropped)
attr title "packet drops: duplicate detected, vector(packetBytes)"
vector 337 Network9.edge[2].wlan[0].mac.dcf packetSentToPeerWithRetry:vector(packetBytes) ETV
attr interpolationmode none
attr source ieee80211Retry(packetSentToPeer)
attr title "packets sent: with retry, vector(packetBytes)"
vector 338 Network9.rsu[2].wlan[0].mac.dcf packetReceivedFromPeerWithRetry:vector(packetBytes) ETV
attr interpolationmode none
attr source ieee80211Retry(packetReceivedFromPeer)
attr title "packets received: with retry, vector(packetBytes)"
vector 339 Network9.rsu[2].wlan[0].mac.dcf.recipientMacDataService packetDropDuplicateDetected:vector(packetBytes) ETV
attr interpolationmode none
attr source packetDropReasonIsDuplicateDetected(packetDropped)
attr title "packet drops: duplicate detected, vector(packetBytes)"
vector 340 Network9.rsu[2].wlan[0].mac packetDropDuplicateDetected:vector(packetBytes) ETV
attr interpolationmode none
attr source packetDropReasonIsDuplicateDetected(packetDropped)
attr title "packet drops: duplicate detected, vector(packetBytes)"
vector 341 Network9.rsu[0].wlan[0].mac.dcf.recipientMacDataService packetDropDuplicateDetected:vector(packetBytes) ETV
attr interpolationmode none
attr source packetDropReasonIsDuplicateDetected(packetDropped)
attr title "packet drops: duplicate detected, vector(packetBytes)"
vector 342 Network9.rsu[0].wlan[0].mac packetDropDuplicateDetected:vector(packetBytes) ETV
attr interpolationmode none
attr source packetDropReasonIsDuplicateDetected(packetDropped)
attr title "packet drops: duplicate detected, vector(packetBytes)"
vector 343 Network9.edge[2].wlan[0].mac.dcf.recipientMacDataService packetDropDuplicateDetected:vector(packetBytes) ETV
attr interpolationmode none
attr source packetDropReasonIsDuplicateDetected(packetDropped)
attr title "packet drops: duplicate detected, vector(packetBytes)"
vector 344 Network9.edge[2].wlan[0].mac packetDropDuplicateDetected:vector(packetBytes) ETV
attr interpolationmode none
attr source packetDropReasonIsDuplicateDetected(packetDropped)
attr title "packet drops: duplicate detected, vector(packetBytes)"
vector 345 Network9.edge[0].wlan[0].mac.dcf.recipientMacDataService packetDropDuplicateDetected:vector(packetBytes) ETV
attr interpolationmode none
attr source packetDropReasonIsDuplicateDetected(packetDropped)
attr title "packet drops: duplicate detected, vector(packetBytes)"
vector 346 Network9.edge[0].wlan[0].mac packetDropDuplicateDetected:vector(packetBytes) ETV
attr interpolationmode none
attr source packetDropReasonIsDuplicateDetected(packetDropped)
attr title "packet drops: duplicate detected, vector(packetBytes)"
0	0	0	0
0	0	0	0
0	0	0	2
0	761	20.006433850194	3
0	771	20.006485850194	2
0	2116	20.011635255325	3
0	2126	20.011687255325	2
0	2177	20.012046177347	3
0	2187	20.012098177347	2
0	2267	20.012294714309	3
0	2283	20.012322714309	2
0	2620	20.01366392959	3
0	2636	20.01369192959	2
0	2762	20.014043197962	3
0	2778	20.014071197962	2
0	2906	20.014392869803	3
0	2927	20.014420869803	2
0	3049	20.014721098364	3
0	3070	20.014773098364	2
0	3213	20.015305338391	3
0	3223	20.015357338391	2
0	3303	20.015538491679	3
0	3315	20.015566491679	2
0	3334	20.015600491679	3
0	3344	20.015652491679	2
0	3452	20.015899912427	3
0	3462	20.015951912427	2
0	3512	20.016012912427	3
0	3527	20.016088912427	2
0	3686	20.016365926311	3
0	3702	20.016393926311	2
0	3755	20.016535001621	3
0	3770	20.016563001621	2
0	3823	20.016702538583	3
0	3839	20.016730538583	2
0	3946	20.016983090591	3
0	3963	20.017011090591	2
0	3980	20.017054090591	3
0	3990	20.017130090591	2
0	4044	20.017248800993	3
0	4055	20.017324800993	2
0	4164	20.01763017656	3
0	4175	20.01770617656	2
0	4348	20.017998552127	3
0	4359	20.018074552127	2
0	4678	20.018869588985	3
0	4690	20.018945588985	2
0	4988	20.019649112369	3
0	5000	20.019725112369	2
0	5053	20.019807822771	3
0	5063	20.019883822771	2
0	5116	20.019972976059	3
0	5131	20.020048976059	2
0	5188	20.020156129347	3
0	5198	20.020208129347	2
0	6717	20.024139644435	3
0	6727	20.024191644435	2
0	7584	20.026529521525	3
0	7600	20.026557521525	2
0	7648	20.026697058487	3
0	7664	20.026725058487	2
0	7753	20.027000434054	3
0	7764	20.027076434054	2
0	7817	20.027246587342	3
0	7827	20.027322587342	2
0	8767	20.030176531748	3
0	8783	20.030204531748	2
0	8958	20.030697218743	3
0	8974	20.030725218743	2
0	8991	20.030795218743	3
0	9001	20.030871218743	2
0	9371	20.031850759278	3
0	9382	20.031926759278	2
0	9668	20.032688430608	3
0	9684	20.032716430608	2
0	9867	20.033228878644	3
0	9884	20.033256878644	2
0	9901	20.033290878644	3
0	9911	20.033366878644	2
0	10098	20.033850919376	3
0	10109	20.033926919376	2
0	12225	20.041648361296	3
0	12241	20.041676361296	2
0	12310	20.041938898258	3
0	12321	20.042014898258	2
0	12404	20.04227943522	3
0	12420	20.04230743522	2
0	12438	20.04240443522	3
0	12448	20.04248043522	2
0	13738	20.049460031544	3
0	13755	20.049488031544	2
0	13772	20.049612031544	3
0	13782	20.049688031544	2
0	13862	20.049880568506	3
0	13878	20.049908568506	2
0	13895	20.049996568506	3
0	13906	20.050072568506	2
0	14130	20.050764097749	3
0	14146	20.050792097749	2
0	14194	20.050967634711	3
0	14210	20.050995634711	2
0	14303	20.051262010278	3
0	14314	20.051338010278	2
0	14365	20.051418163566	3
0	14377	20.051494163566	2
0	14885	20.053134457747	3
0	14901	20.053162457747	2
0	14981	20.053373002655	3
0	14991	20.053449002655	2
0	15046	20.053558713057	3
0	15056	20.053634713057	2
0	15336	20.0546682423	3
0	15352	20.0546962423	2
0	15400	20.054853779262	3
0	15416	20.054881779262	2
0	15433	20.054933779262	3
0	15443	20.055009779262	2
0	15496	20.05521593255	3
0	15507	20.05529193255	2
0	17299	20.06252287509	3
0	17315	20.06255087509	2
0	17362	20.062681412052	3
0	17378	20.062709412052	2
0	17396	20.062779412052	3
0	17406	20.062855412052	2
0	17458	20.06295356534	3
0	17469	20.06302956534	2
0	18514	20.066185355569	3
0	18531	20.066213355569	2
0	18548	20.066247355569	3
0	18559	20.066323355569	2
0	18705	20.066737369453	3
0	18722	20.066765369453	2
0	18739	20.066826369453	3
0	18749	20.066902369453	2
0	19170	20.068312196588	3
0	19187	20.068340196588	2
0	19205	20.068383196588	3
0	19215	20.068459196588	2
0	19297	20.06863373355	3
0	19313	20.06866173355	2
0	19330	20.06871373355	3
0	19341	20.06878973355	2
0	20043	20.070814311493	3
0	20059	20.070842311493	2
0	20224	20.071316695006	3
0	20235	20.071392695006	2
0	20618	20.072445691707	3
0	20629	20.072521691707	2
0	21935	20.079345815113	3
0	21951	20.079373815113	2
0	21999	20.079504352075	3
0	22015	20.079532352075	2
0	22272	20.080249196686	3
0	22289	20.080277196686	2
0	22306	20.080329196686	3
0	22316	20.080405196686	2
0	22605	20.081276871246	3
0	22615	20.081352871246	2
0	22671	20.081433024534	3
0	22682	20.081509024534	2
0	22737	20.081618734936	3
0	22747	20.081694734936	2
0	23776	20.084993630604	3
0	23792	20.085021630604	2
0	23809	20.085145630604	3
0	23819	20.085221630604	2
0	23899	20.085432167566	3
0	23915	20.085460167566	2
0	23932	20.085548167566	3
0	23942	20.085624167566	2
0	26081	20.093667087475	3
0	26097	20.093695087475	2
0	26145	20.093888624437	3
0	26162	20.093916624437	2
0	26180	20.093986624437	3
0	26190	20.094062624437	2
0	26371	20.094564665169	3
0	26383	20.094640665169	2
0	27599	20.098798954189	3
0	27615	20.098826954189	2
0	27908	20.099615040765	3
0	27919	20.099691040765	2
0	28171	20.100377831176	3
0	28200	20.100453831176	2
0	28314	20.100810792826	3
0	28324	20.100886792826	2
0	29381	20.105401399885	3
0	29397	20.105429399885	2
0	29452	20.105568936847	3
0	29468	20.105596936847	2
0	29485	20.105666936847	3
0	29496	20.105742936847	2
0	29579	20.105962473809	3
0	29595	20.105990473809	2
0	29613	20.106087473809	3
0	29624	20.106163473809	2
0	33212	20.120659839944	3
0	33228	20.120687839944	2
0	33245	20.120730839944	3
0	33255	20.120806839944	2
0	33335	20.120981376906	3
0	33351	20.121009376906	2
0	33368	20.121043376906	3
0	33378	20.121119376906	2
0	34630	20.124960252232	3
0	34647	20.124988252232	2
0	34733	20.125253924073	3
0	34743	20.125329924073	2
0	34861	20.125597192445	3
0	34873	20.125673192445	2
0	34965	20.125865902847	3
0	34981	20.125893902847	2
0	34999	20.125972902847	3
0	35010	20.126048902847	2
0	35102	20.126277613249	3
0	35118	20.126305613249	2
0	35174	20.126463323651	3
0	35190	20.126491323651	2
0	35207	20.126552323651	3
0	35218	20.126628323651	2
0	35323	20.126917481233	3
0	35334	20.126993481233	2
0	35571	20.127680199175	3
0	35582	20.127756199175	2
0	35635	20.127883909577	3
0	35646	20.127959909577	2
0	35760	20.128302231807	3
0	35772	20.128378231807	2
0	35934	20.128927245691	3
0	35950	20.128955245691	2
0	35997	20.129112782653	3
0	36013	20.129140782653	2
0	36032	20.129228782653	3
0	36042	20.129304782653	2
0	36166	20.12958815822	3
0	36176	20.12966415822	2
0	37292	20.134746559536	3
0	37309	20.134774559536	2
0	37355	20.134914096498	3
0	37371	20.134942096498	2
0	37390	20.135021096498	3
[...]
324	4887	15.3	0
324	4887	15.4	0
324	4887	15.5	0
324	4887	15.6	0
324	4887	15.7	0
324	4887	15.8	0
324	4887	15.9	0
324	4887	16	0
324	4887	16.1	0
324	4887	16.2	0
324	4887	16.3	0
324	4887	16.4	0
324	4887	16.5	0
324	4887	16.6	0
324	4887	16.7	0
324	4887	16.8	0
324	4887	16.9	0
324	4887	17	0
324	4887	17.1	0
324	4887	17.2	0
324	4887	17.3	0
324	4887	17.4	0
324	4887	17.5	0
324	4887	17.6	0
324	4887	17.7	0
324	4887	17.8	0
324	4887	17.9	0
324	4887	18	0
324	4887	18.1	0
324	4887	18.2	0
324	4887	18.3	0
324	4887	18.4	0
324	4887	18.5	0
324	4887	18.6	0
324	4887	18.7	0
324	4887	18.8	0
324	4887	18.9	0
324	4887	19	0
324	4887	19.1	0
324	4887	19.2	0
324	4887	19.3	0
324	4887	19.4	0
324	4887	19.5	0
324	4887	19.6	0
324	4887	19.7	0
324	4887	19.8	0
324	4887	19.9	0
324	4887	20	0
324	29768	20.1	128000
325	4887	20.019447002724	100
325	4887	20.019447002724	100
325	4887	20.019447002724	100
325	8683	20.029995096485	100
325	8683	20.029995096485	100
325	8683	20.029995096485	100
325	9719	20.032857443381	100
325	9719	20.032857443381	100
325	9719	20.032857443381	100
325	10348	20.03445760526	100
325	10348	20.03445760526	100
325	10348	20.03445760526	100
325	11319	20.038663923432	100
325	11319	20.038663923432	100
325	11319	20.038663923432	100
325	12140	20.041439926033	100
325	12140	20.041439926033	100
325	12140	20.041439926033	100
325	13046	20.044570787826	100
325	13046	20.044570787826	100
325	13046	20.044570787826	100
325	14648	20.052472183879	100
325	14648	20.052472183879	100
325	14648	20.052472183879	100
325	16230	20.057522573098	100
325	16230	20.057522573098	100
325	16230	20.057522573098	100
325	17848	20.064237654586	100
325	17848	20.064237654586	100
325	17848	20.064237654586	100
325	19951	20.07059529872	100
325	19951	20.07059529872	100
325	19951	20.07059529872	100
325	22113	20.079848922818	100
325	22113	20.079848922818	100
325	22113	20.079848922818	100
325	24225	20.086420349274	100
325	24225	20.086420349274	100
325	24225	20.086420349274	100
325	25439	20.091810808114	100
325	25439	20.091810808114	100
325	25439	20.091810808114	100
325	27431	20.098356680321	100
325	27431	20.098356680321	100
325	27431	20.098356680321	100
325	27855	20.09952593112	100
325	27855	20.09952593112	100
325	27855	20.09952593112	100
325	29768	20.106720151747	100
325	29768	20.106720151747	100
325	29768	20.106720151747	100
325	30349	20.108465777147	100
325	30349	20.108465777147	100
325	30349	20.108465777147	100
325	31465	20.114729274784	100
325	31465	20.114729274784	100
325	31465	20.114729274784	100
325	31840	20.115970317525	100
325	31840	20.115970317525	100
325	31840	20.115970317525	100
325	34156	20.123589368058	100
325	34156	20.123589368058	100
325	34156	20.123589368058	100
325	36473	20.130669178533	100
325	36473	20.130669178533	100
325	36473	20.130669178533	100
325	37772	20.13627896176	100
325	37772	20.13627896176	100
325	37772	20.13627896176	100
325	38567	20.138879910306	100
325	38567	20.138879910306	100
325	38567	20.138879910306	100
325	41263	20.148158534773	100
325	41263	20.148158534773	100
325	41263	20.148158534773	100
325	41458	20.148665992004	100
325	41458	20.148665992004	100
325	41458	20.148665992004	100
325	43570	20.155149333443	100
325	43570	20.155149333443	100
325	43570	20.155149333443	100
325	44764	20.158630997396	100
325	44764	20.158630997396	100
325	44764	20.158630997396	100
325	48076	20.169908015536	100
325	48076	20.169908015536	100
325	48076	20.169908015536	100
325	48806	20.172081732347	100
325	48806	20.172081732347	100
325	48806	20.172081732347	100
325	49586	20.174652044328	100
325	49586	20.174652044328	100
325	49586	20.174652044328	100
326	4915	20.019491002724	14
326	6358	20.023250247009	14
326	6594	20.023831370567	164
326	6923	20.024688838284	164
326	7312	20.025662538549	84
326	8714	20.030039096485	14
326	8811	20.030334641393	164
326	9064	20.031054328388	164
326	9750	20.032901443381	14
326	9783	20.033038443381	164
326	10188	20.034110029021	164
326	10379	20.03450160526	14
326	10423	20.03461160526	164
326	10492	20.034801938824	164
326	11350	20.038707923432	14
326	11407	20.038817923432	164
326	11463	20.039026256996	164
326	12172	20.041483926033	14
326	12280	20.041833470941	164
326	12579	20.042889870483	164
326	12648	20.043062204047	164
326	13078	20.044614787826	14
326	13111	20.044778787826	164
326	13174	20.04504112139	164
326	14680	20.052516183879	14
326	14724	20.052671183879	164
326	14928	20.053274567392	164
326	16261	20.057566573098	14
326	16316	20.057694573098	164
326	16442	20.058087149337	164
326	17880	20.064281654586	14
326	17975	20.064666230825	164
326	18037	20.064820564389	164
326	19982	20.07063929872	14
326	20085	20.071008421138	164
326	20443	20.071892417839	164
326	22145	20.079892922818	14
326	22446	20.080753932213	164
326	22574	20.081153508452	164
326	23005	20.082487512574	164
326	24256	20.086464349274	14
326	24288	20.086637349274	164
326	24376	20.086863682838	164
326	25481	20.091854808114	14
326	25526	20.091991808114	164
326	25651	20.092348384353	164
326	25829	20.092964960592	14
326	27462	20.098400680321	14
326	27519	20.098564680321	164
326	27787	20.099359354881	164
326	27886	20.09956993112	14
326	28043	20.100069557308	164
326	28191	20.100453133547	164
326	28254	20.100661133547	164
326	29799	20.106764151747	14
326	29916	20.10721104201	164
326	30039	20.107552193368	164
326	30381	20.108509777147	14
326	30414	20.108700777147	164
326	30477	20.108855110711	164
326	31496	20.114773274784	14
326	31580	20.115191589928	164
326	31708	20.115604741286	164
326	31872	20.116014317525	14
326	31958	20.116413651089	164
326	32082	20.116806227328	164
326	34188	20.123633368058	14
326	34220	20.123743368058	164
326	34283	20.123924701622	164
326	36505	20.130713178533	14
326	36538	20.130877178533	164
326	36664	20.131278754772	164
326	37804	20.13632296176	14
326	37911	20.136707537999	164
326	38043	20.137046114238	164
326	38610	20.138923910306	14
326	38654	20.139042910306	164
326	38739	20.13931424387	164
326	38947	20.139935323879	14
326	41294	20.148202534773	14
326	41490	20.148709992004	14
326	41522	20.148864992004	164
326	41780	20.149604129357	164
326	41847	20.149776462921	164
326	41962	20.150210796485	164
326	43601	20.155193333443	14
326	43831	20.155891347865	164
326	43911	20.156072681429	164
326	44796	20.158674997396	14
326	44829	20.158883997396	164
326	44979	20.159222573635	164
326	48107	20.169952015536	14
326	48230	20.170255919804	164
326	48310	20.170428253368	164
326	48837	20.172125732347	14
326	48869	20.172271732347	164
326	48931	20.172435065911	164
326	49617	20.174696044328	14
326	49727	20.175027263618	164
327	6079	20.02257882637	164
327	18226	20.065371267383	164
328	6222	20.022918255873	164
328	7523	20.026231501159	164
328	7919	20.027541942543	164
328	8676	20.029993438913	164
328	11204	20.03808070789	164
328	11247	20.03842370789	164
328	12850	20.043706122714	164
328	12974	20.044276626484	164
328	14495	20.051966518767	164
328	14582	20.052214022537	164
328	16223	20.057520915526	164
328	16620	20.058767068004	164
328	17051	20.061619486488	164
328	17215	20.062292216407	164
328	17802	20.064009997014	164
328	17841	20.064235997014	164
328	19727	20.069996522064	164
328	19944	20.070593641148	164
328	20694	20.072723046908	164
328	22043	20.079653707276	164
328	22920	20.082322593907	164
328	23561	20.084335412443	164
328	25432	20.091809150542	164
328	25802	20.09291930302	164
328	27069	20.096873516963	164
328	27312	20.097928049595	164
328	27424	20.098355022749	164
328	29244	20.104970741202	164
328	29761	20.106718494175	164
328	29979	20.107375960677	164
328	31340	20.114236059242	164
328	31457	20.114727617212	164
328	31643	20.115401508595	164
328	34149	20.123587710486	164
328	34602	20.124941897031	164
328	35398	20.127185836434	164
328	36328	20.130059017191	164
328	36466	20.130667520961	164
328	37724	20.136087304188	164
328	37765	20.136277304188	164
328	38498	20.13868369162	164
328	38920	20.139889666307	164
328	39334	20.141424769129	164
328	39413	20.141713769129	164
328	39865	20.143246853124	164
328	41192	20.147990319231	164
328	41788	20.149604471785	164
328	42673	20.152276943668	164
328	42936	20.153136522054	164
328	43435	20.154708241009	164
328	44043	20.156535600096	164
328	44228	20.157102975663	164
328	45560	20.161045670916	164
328	47564	20.168173822117	164
328	47893	20.169314791473	164
328	48069	20.169906357964	164
328	48608	20.171483236919	164
329	6277	20.023089049789	164
329	6625	20.023875492906	164
329	7376	20.025882565156	164
329	7947	20.027784663986	164
329	10314	20.03437099602	164
329	10452	20.03465099602	164
329	10628	20.03540799602	164
329	10865	20.03681299602	164
329	11222	20.038152915482	164
329	11394	20.038788473452	164
329	11655	20.040031473452	164
329	12625	20.042942511864	164
329	12809	20.043456511864	164
329	12947	20.044070578945	164
329	13295	20.045385578945	164
329	13584	20.048968578945	164
329	14560	20.05208224021	164
329	14770	20.05272224021	164
329	15183	20.054194789701	164
329	16303	20.057683123118	164
329	16471	20.058116123118	164
329	16596	20.058513123118	164
329	16698	20.060526833566	164
329	17035	20.061546280404	164
329	17077	20.061916280404	164
329	17654	20.063572641984	164
329	19789	20.070181287626	164
329	20148	20.071106388137	164
329	20473	20.071934554183	164
329	20586	20.072250554183	164
329	20791	20.075760401938	164
329	21779	20.078962362514	164
329	22876	20.08211181158	164
329	22992	20.08247281158	164
329	23248	20.083310700573	164
329	23623	20.084583178005	164
329	24132	20.08613124421	164
329	24361	20.08680724421	164
329	24553	20.08751024421	164
329	24606	20.08766424421	164
329	24767	20.08968124421	164
329	25503	20.091908358134	164
329	25709	20.092431358134	164
329	25861	20.093044358134	164
329	27055	20.096836310879	164
329	27098	20.097305310879	164
329	27500	20.098490230341	164
329	27703	20.099064030833	164
329	28292	20.100706714035	164
329	28528	20.102922871617	164
329	29189	20.104888537302	164
329	29409	20.105472098416	164
329	29891	20.1069755526	164
329	30111	20.107677317891	164
329	30688	20.112349317891	164
329	31417	20.114429826489	164
329	31555	20.115015826489	164
329	31915	20.116170865809	164
329	32273	20.117656865809	164
329	33493	20.121536455697	164
329	33908	20.122734943239	164
329	34018	20.123185943239	164
329	34491	20.124533602538	164
329	34575	20.124750602538	164
329	35311	20.126873402442	164
329	35711	20.128213988368	164
329	36385	20.130180237011	164
329	36424	20.130334237011	164
329	36738	20.131424237011	164
329	36860	20.133612237011	164
329	37740	20.136113027778	164
329	37956	20.136780027778	164
329	38169	20.137528027778	164
329	38643	20.138976048834	164
329	38723	20.139247048834	164
329	38981	20.140184048834	164
329	39319	20.141361978406	164
329	39360	20.141623978406	164
329	39851	20.143200576714	164
329	39892	20.143777576714	164
329	41921	20.149986709845	164
329	42025	20.150401709845	164
329	42951	20.153153245644	164
329	42977	20.153316245644	164
329	43861	20.15591689957	164
329	43956	20.15612489957	164
329	44203	20.156936034088	164
329	44965	20.159177063414	164
329	46025	20.163127792504	164
329	46629	20.16483786304	164
329	46686	20.16505486304	164
329	46710	20.16525386304	164
329	47492	20.16800705487	164
329	47895	20.16931500075	164
329	47933	20.16949600075	164
329	48297	20.170409044327	164
329	48527	20.171021529249	164
329	48565	20.171238529249	164
329	49115	20.173158870875	164
330	6515	20.023646308788	84
330	10557	20.035172105606	164
330	10672	20.035852609376	164
330	12383	20.042261166739	164
330	12711	20.043243370829	164
330	12893	20.043994874599	164
330	13237	20.045285288172	164
330	13323	20.046234791942	164
330	22836	20.081906842022	164
330	22890	20.082123842022	164
330	23061	20.082704679356	164
330	24061	20.086024436047	164
330	24431	20.08711684962	164
330	24587	20.08759385716	164
330	24630	20.08781985716	164
330	27982	20.099876147851	164
330	28388	20.101071899912	164
330	29435	20.105550668366	164
330	30216	20.10811486392	164
330	32019	20.116594817871	164
330	33700	20.122104166355	164
330	33951	20.123050485847	164
330	34516	20.124660145146	164
330	35461	20.127422588319	164
330	36782	20.131856921554	164
330	42161	20.150721896147	164
330	46574	20.1647535565	164
330	46667	20.16498306027	164
330	46844	20.165763049342	164
330	48671	20.171657761776	164
331	6526	20.023648418433	84
331	7379	20.025883639629	164
331	11658	20.040032547925	164
331	13587	20.048969653418	164
331	15186	20.054195864174	164
331	16701	20.060527908039	164
331	17080	20.061917354877	164
331	17226	20.062294496964	164
331	17657	20.063573716457	164
331	19792	20.070182362099	164
331	20705	20.072725327465	164
331	20794	20.075761476411	164
331	21782	20.078963436987	164
331	23626	20.084584252478	164
331	24770	20.089682318683	164
331	25864	20.093045432607	164
331	29192	20.104889613959	164
331	29990	20.107378241234	164
331	30691	20.112350394548	164
331	31654	20.115403789152	164
331	35714	20.128215065025	164
331	36863	20.133613313668	164
331	38172	20.137529104435	164
331	38509	20.138685972177	164
331	39363	20.141625055063	164
331	39895	20.143778653371	164
331	42028	20.150402786502	164
331	42980	20.153317322301	164
331	43447	20.154710521566	164
331	44239	20.15710525622	164
331	46028	20.163128869161	164
331	46713	20.165254939697	164
331	47575	20.168176102674	164
331	47937	20.169497077407	164
331	49118	20.173159947532	164
332	7956	20.027786650563	164
332	10874	20.036814982597	164
332	11256	20.038425486875	164
332	16629	20.058768846989	164
332	19736	20.069998301049	164
332	22052	20.079655486261	164
332	23257	20.08331268715	164
332	23570	20.084337191428	164
332	27107	20.097307297456	164
332	28537	20.102924859879	164
332	31349	20.114237838227	164
332	32282	20.117658854071	164
332	33502	20.121538443959	164
332	34027	20.123187931501	164
332	38990	20.140186037096	164
332	41201	20.147992098216	164
332	47501	20.168009043132	164
332	48617	20.171485015904	164
333	8679	20.029995096485	164
333	16226	20.057522573098	164
333	17844	20.064237654586	164
333	19947	20.07059529872	164
333	25435	20.091810808114	164
333	25806	20.092920960592	164
333	27427	20.098356680321	164
333	29764	20.106720151747	164
333	31461	20.114729274784	164
333	34152	20.123589368058	164
333	36469	20.130669178533	164
333	37768	20.13627896176	164
333	38923	20.139891323879	164
333	48072	20.169908015536	164
334	10566	20.035173857491	164
334	10681	20.035854361261	164
334	12720	20.043245122714	164
334	12906	20.043996626484	164
334	13246	20.045287040057	164
334	13332	20.046236543827	164
334	23070	20.082706431241	164
334	23198	20.083039492981	164
334	24070	20.086026187932	164
334	24440	20.087118601505	164
334	24639	20.087821609045	164
334	27991	20.099877899736	164
334	28338	20.100889148027	164
334	28397	20.101073651797	164
334	30225	20.108116615805	164
334	32028	20.116596569756	164
334	33960	20.123052237732	164
334	34525	20.124661897031	164
334	35470	20.127424340204	164
334	36791	20.131858673439	164
334	42170	20.150723648032	164
334	45709	20.161415939288	164
334	46583	20.164755308385	164
334	46853	20.165764801227	164
334	48681	20.171659513661	164
335	10566	20.035173857491	164
335	13246	20.045287040057	164
335	13332	20.046236543827	164
335	24440	20.087118601505	164
335	24639	20.087821609045	164
335	27991	20.099877899736	164
335	35470	20.127424340204	164
335	46583	20.164755308385	164
335	46853	20.165764801227	164
336	10566	20.035173857491	164
336	13246	20.045287040057	164
336	13332	20.046236543827	164
336	24440	20.087118601505	164
336	24639	20.087821609045	164
336	27991	20.099877899736	164
336	35470	20.127424340204	164
336	46583	20.164755308385	164
336	46853	20.165764801227	164
337	12579	20.042889870483	164
337	23005	20.082487512574	164
337	28254	20.100661133547	164
338	12582	20.042890037265	164
338	12981	20.044278378369	164
338	14502	20.051968270652	164
338	14589	20.052215774422	164
338	22927	20.082324345792	164
338	23008	20.082487679356	164
338	28257	20.100661300329	164
338	35405	20.127187588319	164
338	36335	20.130060769076	164
339	14589	20.052215774422	164
339	36335	20.130060769076	164
340	14589	20.052215774422	164
340	36335	20.130060769076	164
341	20794	20.075761476411	164
341	29990	20.107378241234	164
341	30691	20.112350394548	164
341	39895	20.143778653371	164
342	20794	20.075761476411	164
342	29990	20.107378241234	164
342	30691	20.112350394548	164
342	39895	20.143778653371	164
343	25806	20.092920960592	164
343	38923	20.139891323879	164
344	25806	20.092920960592	164
344	38923	20.139891323879	164
345	29449	20.105552936847	164
346	29449	20.105552936847	164
189	49761	20.175071597182	703328.58207338
vector 347 Network9.edge[1].app[0] throughput:vector ETV
attr source throughput(packetReceived)
attr title "throughput, vector"
attr unit bps
186	49761	20.175071597182	213129.87335557
233	49761	20.175071597182	213129.87335557
286	49761	20.175071597182	820550.01241894
289	49761	20.175071597182	106564.93667778
317	49761	20.175071597182	191816.88602001
324	49761	20.175071597182	159847.40501668
347	49761	0.1	0
347	49761	0.2	0
347	49761	0.3	0
347	49761	0.4	0
347	49761	0.5	0
347	49761	0.6	0
347	49761	0.7	0
347	49761	0.8	0
347	49761	0.9	0
347	49761	1	0
347	49761	1.1	0
347	49761	1.2	0
347	49761	1.3	0
347	49761	1.4	0
347	49761	1.5	0
347	49761	1.6	0
347	49761	1.7	0
347	49761	1.8	0
347	49761	1.9	0
347	49761	2	0
347	49761	2.1	0
347	49761	2.2	0
347	49761	2.3	0
347	49761	2.4	0
347	49761	2.5	0
347	49761	2.6	0
347	49761	2.7	0
347	49761	2.8	0
347	49761	2.9	0
347	49761	3	0
347	49761	3.1	0
347	49761	3.2	0
347	49761	3.3	0
347	49761	3.4	0
347	49761	3.5	0
347	49761	3.6	0
347	49761	3.7	0
347	49761	3.8	0
347	49761	3.9	0
347	49761	4	0
347	49761	4.1	0
347	49761	4.2	0
347	49761	4.3	0
347	49761	4.4	0
347	49761	4.5	0
347	49761	4.6	0
347	49761	4.7	0
347	49761	4.8	0
347	49761	4.9	0
347	49761	5	0
347	49761	5.1	0
347	49761	5.2	0
347	49761	5.3	0
347	49761	5.4	0
347	49761	5.5	0
347	49761	5.6	0
347	49761	5.7	0
347	49761	5.8	0
347	49761	5.9	0
347	49761	6	0
347	49761	6.1	0
347	49761	6.2	0
347	49761	6.3	0
347	49761	6.4	0
347	49761	6.5	0
347	49761	6.6	0
347	49761	6.7	0
347	49761	6.8	0
347	49761	6.9	0
347	49761	7	0
347	49761	7.1	0
347	49761	7.2	0
347	49761	7.3	0
347	49761	7.4	0
347	49761	7.5	0
347	49761	7.6	0
347	49761	7.7	0
347	49761	7.8	0
347	49761	7.9	0
347	49761	8	0
347	49761	8.1	0
347	49761	8.2	0
347	49761	8.3	0
347	49761	8.4	0
347	49761	8.5	0
347	49761	8.6	0
347	49761	8.7	0
347	49761	8.8	0
347	49761	8.9	0
347	49761	9	0
347	49761	9.1	0
347	49761	9.2	0
347	49761	9.3	0
347	49761	9.4	0
347	49761	9.5	0
347	49761	9.6	0
347	49761	9.7	0
347	49761	9.8	0
347	49761	9.9	0
347	49761	10	0
347	49761	10.1	0
347	49761	10.2	0
347	49761	10.3	0
347	49761	10.4	0
347	49761	10.5	0
347	49761	10.6	0
347	49761	10.7	0
347	49761	10.8	0
347	49761	10.9	0
347	49761	11	0
347	49761	11.1	0
347	49761	11.2	0
347	49761	11.3	0
347	49761	11.4	0
347	49761	11.5	0
347	49761	11.6	0
347	49761	11.7	0
347	49761	11.8	0
347	49761	11.9	0
347	49761	12	0
347	49761	12.1	0
347	49761	12.2	0
347	49761	12.3	0
347	49761	12.4	0
347	49761	12.5	0
347	49761	12.6	0
347	49761	12.7	0
347	49761	12.8	0
347	49761	12.9	0
347	49761	13	0
347	49761	13.1	0
347	49761	13.2	0
347	49761	13.3	0
347	49761	13.4	0
347	49761	13.5	0
347	49761	13.6	0
347	49761	13.7	0
347	49761	13.8	0
347	49761	13.9	0
347	49761	14	0
347	49761	14.1	0
347	49761	14.2	0
347	49761	14.3	0
347	49761	14.4	0
347	49761	14.5	0
347	49761	14.6	0
347	49761	14.7	0
347	49761	14.8	0
347	49761	14.9	0
347	49761	15	0
347	49761	15.1	0
347	49761	15.2	0
347	49761	15.3	0
347	49761	15.4	0
347	49761	15.5	0
347	49761	15.6	0
347	49761	15.7	0
347	49761	15.8	0
347	49761	15.9	0
347	49761	16	0
347	49761	16.1	0
347	49761	16.2	0
347	49761	16.3	0
347	49761	16.4	0
347	49761	16.5	0
347	49761	16.6	0
347	49761	16.7	0
347	49761	16.8	0
347	49761	16.9	0
347	49761	17	0
347	49761	17.1	0
347	49761	17.2	0
347	49761	17.3	0
347	49761	17.4	0
347	49761	17.5	0
347	49761	17.6	0
347	49761	17.7	0
347	49761	17.8	0
347	49761	17.9	0
347	49761	18	0
347	49761	18.1	0
347	49761	18.2	0
347	49761	18.3	0
347	49761	18.4	0
347	49761	18.5	0
347	49761	18.6	0
347	49761	18.7	0
347	49761	18.8	0
347	49761	18.9	0
347	49761	19	0
347	49761	19.1	0
347	49761	19.2	0
347	49761	19.3	0
347	49761	19.4	0
347	49761	19.5	0
347	49761	19.6	0
347	49761	19.7	0
347	49761	19.8	0
347	49761	19.9	0
347	49761	20	0
347	49761	20.1	0
347	49761	20.175071597182	0

